
     RDKit          3D

 64 67  0  0  0  0  0  0  0  0999 V2000
   -4.9621    1.7223   -2.0810 C   0  0  0  0  0  0  0  0  0  0  0  0
   -4.7587    1.7749   -0.5721 C   0  0  0  0  0  0  0  0  0  0  0  0
   -4.7169    3.2289   -0.1611 C   0  0  0  0  0  0  0  0  0  0  0  0
   -5.9826    1.1592    0.0566 C   0  0  0  0  0  0  0  0  0  0  0  0
   -3.5194    1.0759   -0.2503 C   0  0  0  0  0  0  0  0  0  0  0  0
   -3.4928   -0.2729    0.0255 C   0  0  0  0  0  0  0  0  0  0  0  0
   -2.2931   -0.9083    0.3286 C   0  0  0  0  0  0  0  0  0  0  0  0
   -1.0971   -0.2226    0.3647 C   0  0  0  0  0  0  0  0  0  0  0  0
    0.1464   -0.8961    0.6897 N   0  0  0  0  0  0  0  0  0  0  0  0
    1.3518   -0.1974    0.8016 C   0  0  0  0  0  0  0  0  0  0  0  0
    1.8118    0.4884   -0.3231 C   0  0  0  0  0  0  0  0  0  0  0  0
    2.9739    1.2184   -0.3160 C   0  0  0  0  0  0  0  0  0  0  0  0
    3.7114    1.2740    0.8459 C   0  0  0  0  0  0  0  0  0  0  0  0
    4.9735    2.0590    0.8749 C   0  0  0  0  0  0  0  0  0  0  0  0
    6.0996    1.1347    0.4731 C   0  0  0  0  0  0  0  0  0  0  0  0
    4.9205    3.1985   -0.0998 C   0  0  0  0  0  0  0  0  0  0  0  0
    5.2797    2.6009    2.2521 C   0  0  0  0  0  0  0  0  0  0  0  0
    3.2891    0.6158    1.9597 C   0  0  0  0  0  0  0  0  0  0  0  0
    2.0960   -0.1297    1.9421 C   0  0  0  0  0  0  0  0  0  0  0  0
    0.0388   -2.3170    0.7997 C   0  0  0  0  0  0  0  0  0  0  0  0
    0.2085   -2.9874    1.9775 C   0  0  0  0  0  0  0  0  0  0  0  0
    0.1228   -4.3650    2.0558 C   0  0  0  0  0  0  0  0  0  0  0  0
   -0.1415   -5.0689    0.9099 C   0  0  0  0  0  0  0  0  0  0  0  0
   -0.3162   -4.4146   -0.2898 C   0  0  0  0  0  0  0  0  0  0  0  0
   -0.5751   -5.1346   -1.4586 C   0  0  0  0  0  0  0  0  0  0  0  0
   -0.7451   -4.5202   -2.6805 C   0  0  0  0  0  0  0  0  0  0  0  0
   -0.6497   -3.1513   -2.7134 C   0  0  0  0  0  0  0  0  0  0  0  0
   -0.3947   -2.4282   -1.5668 C   0  0  0  0  0  0  0  0  0  0  0  0
   -0.2300   -3.0481   -0.3651 C   0  0  0  0  0  0  0  0  0  0  0  0
   -1.1404    1.1265    0.0866 C   0  0  0  0  0  0  0  0  0  0  0  0
   -2.3372    1.7825   -0.2203 C   0  0  0  0  0  0  0  0  0  0  0  0
   -5.5999    2.5514   -2.4244 H   0  0  0  0  0  0  0  0  0  0  0  0
   -5.5205    0.7801   -2.3490 H   0  0  0  0  0  0  0  0  0  0  0  0
   -4.0091    1.6715   -2.6069 H   0  0  0  0  0  0  0  0  0  0  0  0
   -4.0730    3.8398   -0.8180 H   0  0  0  0  0  0  0  0  0  0  0  0
   -4.3781    3.3405    0.8857 H   0  0  0  0  0  0  0  0  0  0  0  0
   -5.7695    3.6193   -0.1781 H   0  0  0  0  0  0  0  0  0  0  0  0
   -5.8004    0.8115    1.0953 H   0  0  0  0  0  0  0  0  0  0  0  0
   -6.4291    0.3568   -0.5843 H   0  0  0  0  0  0  0  0  0  0  0  0
   -6.7548    1.9544    0.1245 H   0  0  0  0  0  0  0  0  0  0  0  0
   -4.4374   -0.7963   -0.0067 H   0  0  0  0  0  0  0  0  0  0  0  0
   -2.3330   -1.9766    0.5387 H   0  0  0  0  0  0  0  0  0  0  0  0
    1.2305    0.4438   -1.2514 H   0  0  0  0  0  0  0  0  0  0  0  0
    3.3050    1.7475   -1.2258 H   0  0  0  0  0  0  0  0  0  0  0  0
    6.8822    1.7253   -0.0184 H   0  0  0  0  0  0  0  0  0  0  0  0
    5.6615    0.4224   -0.2845 H   0  0  0  0  0  0  0  0  0  0  0  0
    6.5186    0.5834    1.3431 H   0  0  0  0  0  0  0  0  0  0  0  0
    5.7611    3.9023    0.1120 H   0  0  0  0  0  0  0  0  0  0  0  0
    5.0505    2.8405   -1.1510 H   0  0  0  0  0  0  0  0  0  0  0  0
    3.9870    3.8085    0.0130 H   0  0  0  0  0  0  0  0  0  0  0  0
    4.4122    3.1057    2.7168 H   0  0  0  0  0  0  0  0  0  0  0  0
    5.7028    1.7906    2.8920 H   0  0  0  0  0  0  0  0  0  0  0  0
    6.0704    3.3660    2.1398 H   0  0  0  0  0  0  0  0  0  0  0  0
    3.8350    0.6230    2.9160 H   0  0  0  0  0  0  0  0  0  0  0  0
    1.7692   -0.6370    2.8265 H   0  0  0  0  0  0  0  0  0  0  0  0
    0.4084   -2.4611    2.9239 H   0  0  0  0  0  0  0  0  0  0  0  0
    0.2654   -4.8587    3.0165 H   0  0  0  0  0  0  0  0  0  0  0  0
   -0.2145   -6.1531    0.9455 H   0  0  0  0  0  0  0  0  0  0  0  0
   -0.6350   -6.2046   -1.3511 H   0  0  0  0  0  0  0  0  0  0  0  0
   -0.9407   -5.1414   -3.5297 H   0  0  0  0  0  0  0  0  0  0  0  0
   -0.7805   -2.6501   -3.6684 H   0  0  0  0  0  0  0  0  0  0  0  0
   -0.3151   -1.3538   -1.6482 H   0  0  0  0  0  0  0  0  0  0  0  0
   -0.2581    1.7130    0.1022 H   0  0  0  0  0  0  0  0  0  0  0  0
   -2.2827    2.8379   -0.4252 H   0  0  0  0  0  0  0  0  0  0  0  0
  1  2  1  0
  2  3  1  0
  2  4  1  0
  2  5  1  0
  5  6  2  0
  6  7  1  0
  7  8  2  0
  8  9  1  0
  9 10  1  0
 10 11  2  0
 11 12  1  0
 12 13  2  0
 13 14  1  0
 14 15  1  0
 14 16  1  0
 14 17  1  0
 13 18  1  0
 18 19  2  0
  9 20  1  0
 20 21  2  0
 21 22  1  0
 22 23  2  0
 23 24  1  0
 24 25  2  0
 25 26  1  0
 26 27  2  0
 27 28  1  0
 28 29  2  0
  8 30  1  0
 30 31  2  0
 31  5  1  0
 19 10  1  0
 29 20  1  0
 29 24  1  0
  1 32  1  0
  1 33  1  0
  1 34  1  0
  3 35  1  0
  3 36  1  0
  3 37  1  0
  4 38  1  0
  4 39  1  0
  4 40  1  0
  6 41  1  0
  7 42  1  0
 11 43  1  0
 12 44  1  0
 15 45  1  0
 15 46  1  0
 15 47  1  0
 16 48  1  0
 16 49  1  0
 16 50  1  0
 17 51  1  0
 17 52  1  0
 17 53  1  0
 18 54  1  0
 19 55  1  0
 21 56  1  0
 22 57  1  0
 23 58  1  0
 25 59  1  0
 26 60  1  0
 27 61  1  0
 28 62  1  0
 30 63  1  0
 31 64  1  0
M  END
