
     RDKit          3D

 79 87  0  0  0  0  0  0  0  0999 V2000
  -11.3216   -3.6776    1.9445 C   0  0  0  0  0  0  0  0  0  0  0  0
  -11.0366   -3.5369    0.5927 C   0  0  0  0  0  0  0  0  0  0  0  0
   -9.8287   -2.9537    0.2403 C   0  0  0  0  0  0  0  0  0  0  0  0
   -8.9258   -2.5205    1.1852 C   0  0  0  0  0  0  0  0  0  0  0  0
   -7.6685   -1.9112    0.7744 C   0  0  0  0  0  0  0  0  0  0  0  0
   -6.5769   -2.0961    1.6049 C   0  0  0  0  0  0  0  0  0  0  0  0
   -5.3628   -1.5686    1.3119 C   0  0  0  0  0  0  0  0  0  0  0  0
   -5.1860   -0.8241    0.1613 C   0  0  0  0  0  0  0  0  0  0  0  0
   -3.8873   -0.2640   -0.1505 C   0  0  0  0  0  0  0  0  0  0  0  0
   -3.7909    0.9182   -0.8382 C   0  0  0  0  0  0  0  0  0  0  0  0
   -2.5546    1.4545   -1.1408 C   0  0  0  0  0  0  0  0  0  0  0  0
   -1.3602    0.8409   -0.7749 C   0  0  0  0  0  0  0  0  0  0  0  0
   -1.4874   -0.3432   -0.0855 C   0  0  0  0  0  0  0  0  0  0  0  0
   -2.7259   -0.8825    0.2189 C   0  0  0  0  0  0  0  0  0  0  0  0
   -0.0056   -1.1811    0.4380 S   0  0  0  0  0  0  0  0  0  0  0  0
    1.3905   -0.2171   -0.1545 C   0  0  0  0  0  0  0  0  0  0  0  0
    2.6566   -0.6995    0.0939 C   0  0  0  0  0  0  0  0  0  0  0  0
    3.7396   -0.0091   -0.3465 C   0  0  0  0  0  0  0  0  0  0  0  0
    5.0815   -0.5279   -0.0780 C   0  0  0  0  0  0  0  0  0  0  0  0
    6.1426   -0.3160   -0.9340 C   0  0  0  0  0  0  0  0  0  0  0  0
    7.3937   -0.8288   -0.6335 C   0  0  0  0  0  0  0  0  0  0  0  0
    7.6448   -1.5602    0.5065 C   0  0  0  0  0  0  0  0  0  0  0  0
    8.9529   -2.1126    0.8463 C   0  0  0  0  0  0  0  0  0  0  0  0
    9.3353   -2.2530    2.1784 C   0  0  0  0  0  0  0  0  0  0  0  0
   10.5771   -2.7792    2.4580 C   0  0  0  0  0  0  0  0  0  0  0  0
   11.4287   -3.1611    1.4424 C   0  0  0  0  0  0  0  0  0  0  0  0
   11.0511   -3.0226    0.1214 C   0  0  0  0  0  0  0  0  0  0  0  0
    9.8191   -2.5004   -0.1543 C   0  0  0  0  0  0  0  0  0  0  0  0
    6.5696   -1.7691    1.3641 C   0  0  0  0  0  0  0  0  0  0  0  0
    5.3259   -1.2591    1.0647 C   0  0  0  0  0  0  0  0  0  0  0  0
    3.5442    1.1818   -1.0461 C   0  0  0  0  0  0  0  0  0  0  0  0
    2.2721    1.6449   -1.2831 C   0  0  0  0  0  0  0  0  0  0  0  0
    1.1446    0.9430   -0.8336 C   0  0  0  0  0  0  0  0  0  0  0  0
   -0.1384    1.4456   -1.1262 N   0  0  0  0  0  0  0  0  0  0  0  0
   -0.2033    2.7247   -1.7913 C   0  0  0  0  0  0  0  0  0  0  0  0
   -0.6640    2.7483   -3.0755 C   0  0  0  0  0  0  0  0  0  0  0  0
   -0.7685    3.9448   -3.7561 C   0  0  0  0  0  0  0  0  0  0  0  0
   -0.4067    5.1157   -3.1357 C   0  0  0  0  0  0  0  0  0  0  0  0
    0.0550    5.1250   -1.8561 C   0  0  0  0  0  0  0  0  0  0  0  0
    0.3906    6.3255   -1.2699 C   0  0  0  0  0  0  0  0  0  0  0  0
    0.8380    6.2976    0.0352 C   0  0  0  0  0  0  0  0  0  0  0  0
    0.9417    5.0943    0.7224 C   0  0  0  0  0  0  0  0  0  0  0  0
    0.5950    3.8998    0.1001 C   0  0  0  0  0  0  0  0  0  0  0  0
    0.1516    3.9014   -1.1880 C   0  0  0  0  0  0  0  0  0  0  0  0
   -6.2854   -0.6479   -0.6584 C   0  0  0  0  0  0  0  0  0  0  0  0
   -7.5204   -1.1760   -0.3743 C   0  0  0  0  0  0  0  0  0  0  0  0
   -9.2105   -2.6608    2.5186 C   0  0  0  0  0  0  0  0  0  0  0  0
  -10.4000   -3.2353    2.8662 C   0  0  0  0  0  0  0  0  0  0  0  0
  -12.2762   -4.1386    2.2304 H   0  0  0  0  0  0  0  0  0  0  0  0
  -11.7431   -3.8761   -0.1545 H   0  0  0  0  0  0  0  0  0  0  0  0
   -9.6178   -2.8495   -0.8217 H   0  0  0  0  0  0  0  0  0  0  0  0
   -6.6799   -2.6818    2.5275 H   0  0  0  0  0  0  0  0  0  0  0  0
   -4.4928   -1.7115    1.9672 H   0  0  0  0  0  0  0  0  0  0  0  0
   -4.6741    1.4491   -1.1539 H   0  0  0  0  0  0  0  0  0  0  0  0
   -2.5541    2.4111   -1.6868 H   0  0  0  0  0  0  0  0  0  0  0  0
   -2.7273   -1.8279    0.7697 H   0  0  0  0  0  0  0  0  0  0  0  0
    2.7437   -1.6235    0.6383 H   0  0  0  0  0  0  0  0  0  0  0  0
    6.0132    0.2428   -1.8340 H   0  0  0  0  0  0  0  0  0  0  0  0
    8.2421   -0.6641   -1.3099 H   0  0  0  0  0  0  0  0  0  0  0  0
    8.6625   -1.9513    2.9660 H   0  0  0  0  0  0  0  0  0  0  0  0
   10.8764   -2.8890    3.4978 H   0  0  0  0  0  0  0  0  0  0  0  0
   12.4143   -3.5794    1.6313 H   0  0  0  0  0  0  0  0  0  0  0  0
   11.6933   -3.3115   -0.6989 H   0  0  0  0  0  0  0  0  0  0  0  0
    9.5172   -2.3894   -1.1932 H   0  0  0  0  0  0  0  0  0  0  0  0
    6.7552   -2.3482    2.2729 H   0  0  0  0  0  0  0  0  0  0  0  0
    4.5009   -1.4254    1.7327 H   0  0  0  0  0  0  0  0  0  0  0  0
    4.3811    1.7304   -1.3954 H   0  0  0  0  0  0  0  0  0  0  0  0
    2.1293    2.5772   -1.8496 H   0  0  0  0  0  0  0  0  0  0  0  0
   -0.9602    1.8519   -3.6028 H   0  0  0  0  0  0  0  0  0  0  0  0
   -1.1286    4.0015   -4.7731 H   0  0  0  0  0  0  0  0  0  0  0  0
   -0.4850    6.0689   -3.6662 H   0  0  0  0  0  0  0  0  0  0  0  0
    0.3206    7.2774   -1.7787 H   0  0  0  0  0  0  0  0  0  0  0  0
    1.1057    7.2416    0.5065 H   0  0  0  0  0  0  0  0  0  0  0  0
    1.2987    5.1152    1.7513 H   0  0  0  0  0  0  0  0  0  0  0  0
    0.6823    2.9861    0.6700 H   0  0  0  0  0  0  0  0  0  0  0  0
   -6.1658   -0.0686   -1.5623 H   0  0  0  0  0  0  0  0  0  0  0  0
   -8.3890   -1.0409   -1.0154 H   0  0  0  0  0  0  0  0  0  0  0  0
   -8.5413   -2.3398    3.3091 H   0  0  0  0  0  0  0  0  0  0  0  0
  -10.6271   -3.3471    3.9205 H   0  0  0  0  0  0  0  0  0  0  0  0
  1  2  2  0
  2  3  1  0
  3  4  2  0
  4  5  1  0
  5  6  2  0
  6  7  1  0
  7  8  2  0
  8  9  1  0
  9 10  2  0
 10 11  1  0
 11 12  2  0
 12 13  1  0
 13 14  2  0
 13 15  1  0
 15 16  1  0
 16 17  2  0
 17 18  1  0
 18 19  1  0
 19 20  2  0
 20 21  1  0
 21 22  2  0
 22 23  1  0
 23 24  2  0
 24 25  1  0
 25 26  2  0
 26 27  1  0
 27 28  2  0
 22 29  1  0
 29 30  2  0
 18 31  2  0
 31 32  1  0
 32 33  2  0
 33 34  1  0
 34 35  1  0
 35 36  2  0
 36 37  1  0
 37 38  2  0
 38 39  1  0
 39 40  2  0
 40 41  1  0
 41 42  2  0
 42 43  1  0
 43 44  2  0
  8 45  1  0
 45 46  2  0
  4 47  1  0
 47 48  2  0
 48  1  1  0
 46  5  1  0
 14  9  1  0
 33 16  1  0
 44 35  1  0
 34 12  1  0
 44 39  1  0
 30 19  1  0
 28 23  1  0
  1 49  1  0
  2 50  1  0
  3 51  1  0
  6 52  1  0
  7 53  1  0
 10 54  1  0
 11 55  1  0
 14 56  1  0
 17 57  1  0
 20 58  1  0
 21 59  1  0
 24 60  1  0
 25 61  1  0
 26 62  1  0
 27 63  1  0
 28 64  1  0
 29 65  1  0
 30 66  1  0
 31 67  1  0
 32 68  1  0
 36 69  1  0
 37 70  1  0
 38 71  1  0
 40 72  1  0
 41 73  1  0
 42 74  1  0
 43 75  1  0
 45 76  1  0
 46 77  1  0
 47 78  1  0
 48 79  1  0
M  END
