
     RDKit          3D

 65 71  0  0  0  0  0  0  0  0999 V2000
   -9.4291    3.7313    0.3150 F   0  0  0  0  0  0  0  0  0  0  0  0
   -8.9620    3.5200   -0.9859 C   0  0  0  0  0  0  0  0  0  0  0  0
   -9.8566    2.6570   -1.5895 F   0  0  0  0  0  0  0  0  0  0  0  0
   -8.8649    4.7324   -1.5978 F   0  0  0  0  0  0  0  0  0  0  0  0
   -7.6260    2.8473   -0.9106 C   0  0  0  0  0  0  0  0  0  0  0  0
   -7.4961    1.6303   -0.2760 C   0  0  0  0  0  0  0  0  0  0  0  0
   -6.2938    0.9645   -0.1742 C   0  0  0  0  0  0  0  0  0  0  0  0
   -5.1446    1.5163   -0.7239 C   0  0  0  0  0  0  0  0  0  0  0  0
   -3.8558    0.8262   -0.6260 C   0  0  0  0  0  0  0  0  0  0  0  0
   -3.7609   -0.5416   -0.6142 C   0  0  0  0  0  0  0  0  0  0  0  0
   -2.5292   -1.1705   -0.5151 C   0  0  0  0  0  0  0  0  0  0  0  0
   -1.3407   -0.4484   -0.4242 C   0  0  0  0  0  0  0  0  0  0  0  0
   -1.4426    0.9055   -0.4364 C   0  0  0  0  0  0  0  0  0  0  0  0
   -2.6539    1.5151   -0.5337 C   0  0  0  0  0  0  0  0  0  0  0  0
   -0.0171    1.9595   -0.3092 S   0  0  0  0  0  0  0  0  0  0  0  0
    1.3997    0.8605   -0.2039 C   0  0  0  0  0  0  0  0  0  0  0  0
    2.6483    1.3968   -0.1236 C   0  0  0  0  0  0  0  0  0  0  0  0
    3.7556    0.5956   -0.0552 C   0  0  0  0  0  0  0  0  0  0  0  0
    5.0700    1.2446    0.0314 C   0  0  0  0  0  0  0  0  0  0  0  0
    5.2354    2.4555   -0.5997 C   0  0  0  0  0  0  0  0  0  0  0  0
    6.4604    3.0685   -0.5168 C   0  0  0  0  0  0  0  0  0  0  0  0
    7.5118    2.5056    0.1743 C   0  0  0  0  0  0  0  0  0  0  0  0
    8.8251    3.2040    0.2407 C   0  0  0  0  0  0  0  0  0  0  0  0
    9.6472    2.5019    1.0665 F   0  0  0  0  0  0  0  0  0  0  0  0
    8.6633    4.4821    0.7480 F   0  0  0  0  0  0  0  0  0  0  0  0
    9.3814    3.3220   -1.0078 F   0  0  0  0  0  0  0  0  0  0  0  0
    7.3281    1.2865    0.8035 C   0  0  0  0  0  0  0  0  0  0  0  0
    6.1059    0.6631    0.7274 C   0  0  0  0  0  0  0  0  0  0  0  0
    3.5838   -0.7704   -0.0697 C   0  0  0  0  0  0  0  0  0  0  0  0
    2.3090   -1.2827   -0.1518 C   0  0  0  0  0  0  0  0  0  0  0  0
    1.1584   -0.4863   -0.2217 C   0  0  0  0  0  0  0  0  0  0  0  0
   -0.0946   -1.0965   -0.3211 N   0  0  0  0  0  0  0  0  0  0  0  0
   -0.1121   -2.5411   -0.2533 C   0  0  0  0  0  0  0  0  0  0  0  0
   -0.4693   -3.2105   -1.3971 C   0  0  0  0  0  0  0  0  0  0  0  0
   -0.5198   -4.5965   -1.3899 C   0  0  0  0  0  0  0  0  0  0  0  0
   -0.2082   -5.2803   -0.2252 C   0  0  0  0  0  0  0  0  0  0  0  0
    0.1483   -4.5814    0.9157 C   0  0  0  0  0  0  0  0  0  0  0  0
    0.4323   -5.3039    2.0477 C   0  0  0  0  0  0  0  0  0  0  0  0
    0.7723   -4.6242    3.1977 C   0  0  0  0  0  0  0  0  0  0  0  0
    0.8278   -3.2378    3.2144 C   0  0  0  0  0  0  0  0  0  0  0  0
    0.5448   -2.5053    2.0822 C   0  0  0  0  0  0  0  0  0  0  0  0
    0.2030   -3.1891    0.9235 C   0  0  0  0  0  0  0  0  0  0  0  0
   -5.2717    2.7311   -1.3580 C   0  0  0  0  0  0  0  0  0  0  0  0
   -6.4908    3.4021   -1.4593 C   0  0  0  0  0  0  0  0  0  0  0  0
   -8.4192    1.2097    0.1535 H   0  0  0  0  0  0  0  0  0  0  0  0
   -6.2152    0.0088    0.3298 H   0  0  0  0  0  0  0  0  0  0  0  0
   -4.6697   -1.1134   -0.6839 H   0  0  0  0  0  0  0  0  0  0  0  0
   -2.4817   -2.2506   -0.5020 H   0  0  0  0  0  0  0  0  0  0  0  0
   -2.7125    2.6032   -0.5416 H   0  0  0  0  0  0  0  0  0  0  0  0
    2.7304    2.4827   -0.1162 H   0  0  0  0  0  0  0  0  0  0  0  0
    4.4585    2.9557   -1.1588 H   0  0  0  0  0  0  0  0  0  0  0  0
    6.6478    4.0281   -0.9970 H   0  0  0  0  0  0  0  0  0  0  0  0
    8.1264    0.8076    1.3585 H   0  0  0  0  0  0  0  0  0  0  0  0
    5.9336   -0.2819    1.2053 H   0  0  0  0  0  0  0  0  0  0  0  0
    4.4638   -1.4094   -0.0154 H   0  0  0  0  0  0  0  0  0  0  0  0
    2.2458   -2.3666   -0.1728 H   0  0  0  0  0  0  0  0  0  0  0  0
   -0.7153   -2.6931   -2.3132 H   0  0  0  0  0  0  0  0  0  0  0  0
   -0.8053   -5.0819   -2.3098 H   0  0  0  0  0  0  0  0  0  0  0  0
   -0.2530   -6.3689   -0.2392 H   0  0  0  0  0  0  0  0  0  0  0  0
    0.3886   -6.3906    2.0342 H   0  0  0  0  0  0  0  0  0  0  0  0
    0.9958   -5.1905    4.0867 H   0  0  0  0  0  0  0  0  0  0  0  0
    1.0995   -2.7540    4.1415 H   0  0  0  0  0  0  0  0  0  0  0  0
    0.5759   -1.4131    2.0891 H   0  0  0  0  0  0  0  0  0  0  0  0
   -4.3899    3.1913   -1.7999 H   0  0  0  0  0  0  0  0  0  0  0  0
   -6.5764    4.3677   -1.9664 H   0  0  0  0  0  0  0  0  0  0  0  0
  1  2  1  0
  2  3  1  0
  2  4  1  0
  2  5  1  0
  5  6  2  0
  6  7  1  0
  7  8  2  0
  8  9  1  0
  9 10  2  0
 10 11  1  0
 11 12  2  0
 12 13  1  0
 13 14  2  0
 13 15  1  0
 15 16  1  0
 16 17  2  0
 17 18  1  0
 18 19  1  0
 19 20  2  0
 20 21  1  0
 21 22  2  0
 22 23  1  0
 23 24  1  0
 23 25  1  0
 23 26  1  0
 22 27  1  0
 27 28  2  0
 18 29  2  0
 29 30  1  0
 30 31  2  0
 31 32  1  0
 32 33  1  0
 33 34  2  0
 34 35  1  0
 35 36  2  0
 36 37  1  0
 37 38  2  0
 38 39  1  0
 39 40  2  0
 40 41  1  0
 41 42  2  0
  8 43  1  0
 43 44  2  0
 44  5  1  0
 14  9  1  0
 31 16  1  0
 42 33  1  0
 32 12  1  0
 42 37  1  0
 28 19  1  0
  6 45  1  0
  7 46  1  0
 10 47  1  0
 11 48  1  0
 14 49  1  0
 17 50  1  0
 20 51  1  0
 21 52  1  0
 27 53  1  0
 28 54  1  0
 29 55  1  0
 30 56  1  0
 34 57  1  0
 35 58  1  0
 36 59  1  0
 38 60  1  0
 39 61  1  0
 40 62  1  0
 41 63  1  0
 43 64  1  0
 44 65  1  0
M  END
