
     RDKit          3D

116122  0  0  0  0  0  0  0  0999 V2000
    6.6258    4.3765   -2.7705 C   0  0  0  0  0  0  0  0  0  0  0  0
    5.8490    4.6287   -1.5203 C   0  0  0  0  0  0  0  0  0  0  0  0
    4.8510    5.7552   -1.6411 C   0  0  0  0  0  0  0  0  0  0  0  0
    6.8455    5.0553   -0.4535 C   0  0  0  0  0  0  0  0  0  0  0  0
    5.1036    3.4241   -1.1003 C   0  0  0  0  0  0  0  0  0  0  0  0
    5.6731    2.5345   -0.2189 C   0  0  0  0  0  0  0  0  0  0  0  0
    4.9792    1.3976    0.1882 C   0  0  0  0  0  0  0  0  0  0  0  0
    3.7089    1.1717   -0.3040 C   0  0  0  0  0  0  0  0  0  0  0  0
    2.9699    0.0235    0.0820 N   0  0  0  0  0  0  0  0  0  0  0  0
    3.6061   -1.1526    0.5661 C   0  0  0  0  0  0  0  0  0  0  0  0
    4.8377   -1.5703    0.1769 C   0  0  0  0  0  0  0  0  0  0  0  0
    5.4208   -2.7239    0.6936 C   0  0  0  0  0  0  0  0  0  0  0  0
    4.7623   -3.4910    1.6269 C   0  0  0  0  0  0  0  0  0  0  0  0
    5.3658   -4.7310    2.1830 C   0  0  0  0  0  0  0  0  0  0  0  0
    4.4108   -5.3794    3.1698 C   0  0  0  0  0  0  0  0  0  0  0  0
    6.6688   -4.4866    2.9002 C   0  0  0  0  0  0  0  0  0  0  0  0
    5.5935   -5.7266    1.0522 C   0  0  0  0  0  0  0  0  0  0  0  0
    3.5132   -3.0572    2.0136 C   0  0  0  0  0  0  0  0  0  0  0  0
    2.9445   -1.9274    1.5067 C   0  0  0  0  0  0  0  0  0  0  0  0
    1.5441    0.0307   -0.0252 C   0  0  0  0  0  0  0  0  0  0  0  0
    0.8292    0.6255    0.9765 C   0  0  0  0  0  0  0  0  0  0  0  0
    1.4830    1.2081    2.0406 C   0  0  0  0  0  0  0  0  0  0  0  0
    0.7353    1.8000    3.0342 C   0  0  0  0  0  0  0  0  0  0  0  0
   -0.6401    1.8120    2.9704 C   0  0  0  0  0  0  0  0  0  0  0  0
   -1.3021    1.2314    1.9091 C   0  0  0  0  0  0  0  0  0  0  0  0
   -0.5644    0.6444    0.9228 C   0  0  0  0  0  0  0  0  0  0  0  0
   -1.2561    0.0714   -0.1266 C   0  0  0  0  0  0  0  0  0  0  0  0
   -2.6872    0.0979   -0.1809 N   0  0  0  0  0  0  0  0  0  0  0  0
   -3.4215    1.0039   -0.9870 C   0  0  0  0  0  0  0  0  0  0  0  0
   -2.9884    2.2820   -1.2650 C   0  0  0  0  0  0  0  0  0  0  0  0
   -3.7294    3.1048   -2.0860 C   0  0  0  0  0  0  0  0  0  0  0  0
   -4.9106    2.6889   -2.6501 C   0  0  0  0  0  0  0  0  0  0  0  0
   -5.7518    3.5191   -3.5488 C   0  0  0  0  0  0  0  0  0  0  0  0
   -5.2675    3.2260   -4.9687 C   0  0  0  0  0  0  0  0  0  0  0  0
   -7.2022    3.0889   -3.4807 C   0  0  0  0  0  0  0  0  0  0  0  0
   -5.6850    4.9898   -3.2485 C   0  0  0  0  0  0  0  0  0  0  0  0
   -5.3680    1.4145   -2.3888 C   0  0  0  0  0  0  0  0  0  0  0  0
   -4.6078    0.6159   -1.5665 C   0  0  0  0  0  0  0  0  0  0  0  0
   -3.4628   -0.8142    0.6209 C   0  0  0  0  0  0  0  0  0  0  0  0
   -4.7232   -0.5206    1.0511 C   0  0  0  0  0  0  0  0  0  0  0  0
   -5.4299   -1.4107    1.8033 C   0  0  0  0  0  0  0  0  0  0  0  0
   -4.9099   -2.6302    2.1584 C   0  0  0  0  0  0  0  0  0  0  0  0
   -5.7455   -3.5374    2.9805 C   0  0  0  0  0  0  0  0  0  0  0  0
   -5.4393   -3.1956    4.4438 C   0  0  0  0  0  0  0  0  0  0  0  0
   -5.4413   -4.9935    2.7299 C   0  0  0  0  0  0  0  0  0  0  0  0
   -7.1956   -3.2011    2.7516 C   0  0  0  0  0  0  0  0  0  0  0  0
   -3.6421   -2.9491    1.7372 C   0  0  0  0  0  0  0  0  0  0  0  0
   -2.9297   -2.0508    0.9781 C   0  0  0  0  0  0  0  0  0  0  0  0
   -0.5107   -0.5254   -1.1303 C   0  0  0  0  0  0  0  0  0  0  0  0
   -1.1999   -1.0981   -2.1855 C   0  0  0  0  0  0  0  0  0  0  0  0
   -0.4637   -1.6884   -3.1842 C   0  0  0  0  0  0  0  0  0  0  0  0
    0.9178   -1.7050   -3.1284 C   0  0  0  0  0  0  0  0  0  0  0  0
    1.6070   -1.1331   -2.0746 C   0  0  0  0  0  0  0  0  0  0  0  0
    0.8760   -0.5426   -1.0756 C   0  0  0  0  0  0  0  0  0  0  0  0
    3.1218    2.0714   -1.2012 C   0  0  0  0  0  0  0  0  0  0  0  0
    3.8516    3.1736   -1.5667 C   0  0  0  0  0  0  0  0  0  0  0  0
    7.1501    3.4146   -2.6811 H   0  0  0  0  0  0  0  0  0  0  0  0
    5.8973    4.2819   -3.6157 H   0  0  0  0  0  0  0  0  0  0  0  0
    7.3314    5.2071   -2.9852 H   0  0  0  0  0  0  0  0  0  0  0  0
    3.9729    5.5301   -1.0133 H   0  0  0  0  0  0  0  0  0  0  0  0
    5.2696    6.7115   -1.2575 H   0  0  0  0  0  0  0  0  0  0  0  0
    4.5547    5.9206   -2.6987 H   0  0  0  0  0  0  0  0  0  0  0  0
    6.4221    4.8982    0.5685 H   0  0  0  0  0  0  0  0  0  0  0  0
    7.0323    6.1395   -0.6309 H   0  0  0  0  0  0  0  0  0  0  0  0
    7.8233    4.5450   -0.5555 H   0  0  0  0  0  0  0  0  0  0  0  0
    6.6770    2.6942    0.1819 H   0  0  0  0  0  0  0  0  0  0  0  0
    5.4830    0.7584    0.8910 H   0  0  0  0  0  0  0  0  0  0  0  0
    5.4041   -1.0117   -0.5782 H   0  0  0  0  0  0  0  0  0  0  0  0
    6.4080   -3.0623    0.3849 H   0  0  0  0  0  0  0  0  0  0  0  0
    4.8104   -6.3856    3.4736 H   0  0  0  0  0  0  0  0  0  0  0  0
    3.4608   -5.5982    2.6432 H   0  0  0  0  0  0  0  0  0  0  0  0
    4.2188   -4.7283    4.0428 H   0  0  0  0  0  0  0  0  0  0  0  0
    6.5409   -4.6111    3.9959 H   0  0  0  0  0  0  0  0  0  0  0  0
    7.4366   -5.2531    2.6094 H   0  0  0  0  0  0  0  0  0  0  0  0
    7.0790   -3.4642    2.6824 H   0  0  0  0  0  0  0  0  0  0  0  0
    4.9172   -5.4482    0.1940 H   0  0  0  0  0  0  0  0  0  0  0  0
    6.6614   -5.6716    0.7380 H   0  0  0  0  0  0  0  0  0  0  0  0
    5.3545   -6.7409    1.4284 H   0  0  0  0  0  0  0  0  0  0  0  0
    2.9614   -3.6388    2.7531 H   0  0  0  0  0  0  0  0  0  0  0  0
    1.9494   -1.6261    1.8425 H   0  0  0  0  0  0  0  0  0  0  0  0
    2.5669    1.1789    2.0552 H   0  0  0  0  0  0  0  0  0  0  0  0
    1.2848    2.2506    3.8605 H   0  0  0  0  0  0  0  0  0  0  0  0
   -1.2209    2.2736    3.7460 H   0  0  0  0  0  0  0  0  0  0  0  0
   -2.3788    1.2205    1.8230 H   0  0  0  0  0  0  0  0  0  0  0  0
   -2.0706    2.6324   -0.8373 H   0  0  0  0  0  0  0  0  0  0  0  0
   -3.3774    4.1079   -2.2966 H   0  0  0  0  0  0  0  0  0  0  0  0
   -4.9797    2.1366   -5.0243 H   0  0  0  0  0  0  0  0  0  0  0  0
   -6.0770    3.3801   -5.7105 H   0  0  0  0  0  0  0  0  0  0  0  0
   -4.4343    3.8736   -5.2436 H   0  0  0  0  0  0  0  0  0  0  0  0
   -7.5298    2.8408   -2.4640 H   0  0  0  0  0  0  0  0  0  0  0  0
   -7.8245    3.8932   -3.9679 H   0  0  0  0  0  0  0  0  0  0  0  0
   -7.4043    2.1831   -4.1179 H   0  0  0  0  0  0  0  0  0  0  0  0
   -6.6259    5.5132   -3.5144 H   0  0  0  0  0  0  0  0  0  0  0  0
   -5.5668    5.1218   -2.1554 H   0  0  0  0  0  0  0  0  0  0  0  0
   -4.8228    5.4362   -3.7923 H   0  0  0  0  0  0  0  0  0  0  0  0
   -6.3138    1.0495   -2.8272 H   0  0  0  0  0  0  0  0  0  0  0  0
   -4.9781   -0.4047   -1.3793 H   0  0  0  0  0  0  0  0  0  0  0  0
   -5.1560    0.4339    0.8010 H   0  0  0  0  0  0  0  0  0  0  0  0
   -6.4380   -1.1110    2.1161 H   0  0  0  0  0  0  0  0  0  0  0  0
   -5.5786   -4.1434    5.0383 H   0  0  0  0  0  0  0  0  0  0  0  0
   -6.1900   -2.4687    4.8388 H   0  0  0  0  0  0  0  0  0  0  0  0
   -4.4096   -2.8282    4.5577 H   0  0  0  0  0  0  0  0  0  0  0  0
   -4.4380   -5.1933    3.1875 H   0  0  0  0  0  0  0  0  0  0  0  0
   -5.4654   -5.1927    1.6512 H   0  0  0  0  0  0  0  0  0  0  0  0
   -6.2293   -5.5760    3.2679 H   0  0  0  0  0  0  0  0  0  0  0  0
   -7.4613   -2.3509    3.3962 H   0  0  0  0  0  0  0  0  0  0  0  0
   -7.3034   -2.9065    1.6899 H   0  0  0  0  0  0  0  0  0  0  0  0
   -7.8679   -4.0481    3.0238 H   0  0  0  0  0  0  0  0  0  0  0  0
   -3.2270   -3.9290    2.0242 H   0  0  0  0  0  0  0  0  0  0  0  0
   -1.9191   -2.2998    0.6391 H   0  0  0  0  0  0  0  0  0  0  0  0
   -2.2701   -1.0493   -2.1664 H   0  0  0  0  0  0  0  0  0  0  0  0
   -1.0026   -2.1350   -4.0081 H   0  0  0  0  0  0  0  0  0  0  0  0
    1.4849   -2.1819   -3.9369 H   0  0  0  0  0  0  0  0  0  0  0  0
    2.6840   -1.1454   -2.0297 H   0  0  0  0  0  0  0  0  0  0  0  0
    2.1120    1.8790   -1.5841 H   0  0  0  0  0  0  0  0  0  0  0  0
    3.3927    3.8730   -2.2639 H   0  0  0  0  0  0  0  0  0  0  0  0
  1  2  1  0
  2  3  1  0
  2  4  1  0
  2  5  1  0
  5  6  2  0
  6  7  1  0
  7  8  2  0
  8  9  1  0
  9 10  1  0
 10 11  2  0
 11 12  1  0
 12 13  2  0
 13 14  1  0
 14 15  1  0
 14 16  1  0
 14 17  1  0
 13 18  1  0
 18 19  2  0
  9 20  1  0
 20 21  1  0
 21 22  2  0
 22 23  1  0
 23 24  2  0
 24 25  1  0
 25 26  2  0
 26 27  1  0
 27 28  1  0
 28 29  1  0
 29 30  2  0
 30 31  1  0
 31 32  2  0
 32 33  1  0
 33 34  1  0
 33 35  1  0
 33 36  1  0
 32 37  1  0
 37 38  2  0
 28 39  1  0
 39 40  2  0
 40 41  1  0
 41 42  2  0
 42 43  1  0
 43 44  1  0
 43 45  1  0
 43 46  1  0
 42 47  1  0
 47 48  2  0
 27 49  2  0
 49 50  1  0
 50 51  2  0
 51 52  1  0
 52 53  2  0
 53 54  1  0
  8 55  1  0
 55 56  2  0
 56  5  1  0
 19 10  1  0
 54 20  2  0
 26 21  1  0
 38 29  1  0
 48 39  1  0
 54 49  1  0
  1 57  1  0
  1 58  1  0
  1 59  1  0
  3 60  1  0
  3 61  1  0
  3 62  1  0
  4 63  1  0
  4 64  1  0
  4 65  1  0
  6 66  1  0
  7 67  1  0
 11 68  1  0
 12 69  1  0
 15 70  1  0
 15 71  1  0
 15 72  1  0
 16 73  1  0
 16 74  1  0
 16 75  1  0
 17 76  1  0
 17 77  1  0
 17 78  1  0
 18 79  1  0
 19 80  1  0
 22 81  1  0
 23 82  1  0
 24 83  1  0
 25 84  1  0
 30 85  1  0
 31 86  1  0
 34 87  1  0
 34 88  1  0
 34 89  1  0
 35 90  1  0
 35 91  1  0
 35 92  1  0
 36 93  1  0
 36 94  1  0
 36 95  1  0
 37 96  1  0
 38 97  1  0
 40 98  1  0
 41 99  1  0
 44100  1  0
 44101  1  0
 44102  1  0
 45103  1  0
 45104  1  0
 45105  1  0
 46106  1  0
 46107  1  0
 46108  1  0
 47109  1  0
 48110  1  0
 50111  1  0
 51112  1  0
 52113  1  0
 53114  1  0
 55115  1  0
 56116  1  0
M  END
