
     RDKit          3D

 98104  0  0  0  0  0  0  0  0999 V2000
   -3.3949   -6.0799   -2.6859 C   0  0  0  0  0  0  0  0  0  0  0  0
   -3.1773   -4.8274   -1.8877 C   0  0  0  0  0  0  0  0  0  0  0  0
   -2.3906   -3.7969   -2.3580 C   0  0  0  0  0  0  0  0  0  0  0  0
   -2.1943   -2.6504   -1.6261 C   0  0  0  0  0  0  0  0  0  0  0  0
   -2.7829   -2.4846   -0.3799 C   0  0  0  0  0  0  0  0  0  0  0  0
   -2.5383   -1.2827    0.3401 N   0  0  0  0  0  0  0  0  0  0  0  0
   -3.5054   -0.7285    1.2219 C   0  0  0  0  0  0  0  0  0  0  0  0
   -4.8543   -0.9695    1.0915 C   0  0  0  0  0  0  0  0  0  0  0  0
   -5.7729   -0.4207    1.9954 C   0  0  0  0  0  0  0  0  0  0  0  0
   -5.3618    0.3717    3.0354 C   0  0  0  0  0  0  0  0  0  0  0  0
   -6.3369    0.9614    4.0049 C   0  0  0  0  0  0  0  0  0  0  0  0
   -4.0186    0.6215    3.1782 C   0  0  0  0  0  0  0  0  0  0  0  0
   -3.1055    0.0766    2.2813 C   0  0  0  0  0  0  0  0  0  0  0  0
   -1.2574   -0.6855    0.1472 C   0  0  0  0  0  0  0  0  0  0  0  0
   -0.1068   -1.4108   -0.0596 C   0  0  0  0  0  0  0  0  0  0  0  0
    1.1152   -0.8315   -0.2482 C   0  0  0  0  0  0  0  0  0  0  0  0
    2.2923   -1.6056   -0.4527 N   0  0  0  0  0  0  0  0  0  0  0  0
    3.0773   -1.5040   -1.6332 C   0  0  0  0  0  0  0  0  0  0  0  0
    4.4447   -1.6715   -1.6781 C   0  0  0  0  0  0  0  0  0  0  0  0
    5.1541   -1.5856   -2.8690 C   0  0  0  0  0  0  0  0  0  0  0  0
    4.5099   -1.3261   -4.0617 C   0  0  0  0  0  0  0  0  0  0  0  0
    5.2649   -1.2336   -5.3539 C   0  0  0  0  0  0  0  0  0  0  0  0
    3.1453   -1.1567   -4.0272 C   0  0  0  0  0  0  0  0  0  0  0  0
    2.4390   -1.2425   -2.8426 C   0  0  0  0  0  0  0  0  0  0  0  0
    2.6955   -2.5164    0.5622 C   0  0  0  0  0  0  0  0  0  0  0  0
    3.4580   -3.6287    0.2990 C   0  0  0  0  0  0  0  0  0  0  0  0
    3.8571   -4.5002    1.3211 C   0  0  0  0  0  0  0  0  0  0  0  0
    3.4939   -4.2669    2.6331 C   0  0  0  0  0  0  0  0  0  0  0  0
    3.9244   -5.2023    3.7198 C   0  0  0  0  0  0  0  0  0  0  0  0
    2.7316   -3.1550    2.8948 C   0  0  0  0  0  0  0  0  0  0  0  0
    2.3374   -2.2961    1.8923 C   0  0  0  0  0  0  0  0  0  0  0  0
    1.2033    0.5680   -0.2310 C   0  0  0  0  0  0  0  0  0  0  0  0
    2.4684    1.1916   -0.4030 N   0  0  0  0  0  4  0  0  0  0  0  0
    3.3227    1.2125    0.5034 O   0  0  0  0  0  0  0  0  0  0  0  0
    2.7724    1.7898   -1.5889 O   0  0  0  0  0  1  0  0  0  0  0  0
    0.0717    1.3170   -0.0286 C   0  0  0  0  0  0  0  0  0  0  0  0
    0.0874    2.7557    0.0068 N   0  0  0  0  0  0  0  0  0  0  0  0
    0.4865    3.5626   -1.0785 C   0  0  0  0  0  0  0  0  0  0  0  0
    1.2816    4.6592   -0.8411 C   0  0  0  0  0  0  0  0  0  0  0  0
    1.6730    5.4766   -1.8786 C   0  0  0  0  0  0  0  0  0  0  0  0
    1.2919    5.2333   -3.1686 C   0  0  0  0  0  0  0  0  0  0  0  0
    1.7178    6.1091   -4.2712 C   0  0  0  0  0  0  0  0  0  0  0  0
    0.4992    4.1428   -3.4146 C   0  0  0  0  0  0  0  0  0  0  0  0
    0.0972    3.3097   -2.3736 C   0  0  0  0  0  0  0  0  0  0  0  0
   -0.3394    3.4160    1.2092 C   0  0  0  0  0  0  0  0  0  0  0  0
   -0.3979    2.7016    2.3970 C   0  0  0  0  0  0  0  0  0  0  0  0
   -0.8280    3.3204    3.5497 C   0  0  0  0  0  0  0  0  0  0  0  0
   -1.2074    4.6328    3.5752 C   0  0  0  0  0  0  0  0  0  0  0  0
   -1.6677    5.2551    4.8442 C   0  0  0  0  0  0  0  0  0  0  0  0
   -1.1572    5.3509    2.4201 C   0  0  0  0  0  0  0  0  0  0  0  0
   -0.7259    4.7325    1.2622 C   0  0  0  0  0  0  0  0  0  0  0  0
   -1.1633    0.6850    0.1613 C   0  0  0  0  0  0  0  0  0  0  0  0
   -3.5692   -3.5060    0.0993 C   0  0  0  0  0  0  0  0  0  0  0  0
   -3.7600   -4.6686   -0.6582 C   0  0  0  0  0  0  0  0  0  0  0  0
   -3.3256   -6.9068   -1.9634 H   0  0  0  0  0  0  0  0  0  0  0  0
   -2.6500   -6.0901   -3.4816 H   0  0  0  0  0  0  0  0  0  0  0  0
   -4.4448   -5.9747   -3.0815 H   0  0  0  0  0  0  0  0  0  0  0  0
   -1.9258   -3.9084   -3.3235 H   0  0  0  0  0  0  0  0  0  0  0  0
   -1.5764   -1.8388   -1.9945 H   0  0  0  0  0  0  0  0  0  0  0  0
   -5.2309   -1.5694    0.2966 H   0  0  0  0  0  0  0  0  0  0  0  0
   -6.8333   -0.6161    1.8881 H   0  0  0  0  0  0  0  0  0  0  0  0
   -7.3002    0.4283    3.9579 H   0  0  0  0  0  0  0  0  0  0  0  0
   -6.4547    2.0326    3.7385 H   0  0  0  0  0  0  0  0  0  0  0  0
   -5.9403    0.9219    5.0388 H   0  0  0  0  0  0  0  0  0  0  0  0
   -3.7148    1.2508    4.0014 H   0  0  0  0  0  0  0  0  0  0  0  0
   -2.0612    0.2717    2.4093 H   0  0  0  0  0  0  0  0  0  0  0  0
   -0.1984   -2.4954   -0.0687 H   0  0  0  0  0  0  0  0  0  0  0  0
    4.9695   -1.8635   -0.7311 H   0  0  0  0  0  0  0  0  0  0  0  0
    6.2134   -1.7207   -2.8708 H   0  0  0  0  0  0  0  0  0  0  0  0
    4.6332   -1.5238   -6.1950 H   0  0  0  0  0  0  0  0  0  0  0  0
    5.6928   -0.2229   -5.4241 H   0  0  0  0  0  0  0  0  0  0  0  0
    6.1315   -1.9339   -5.2971 H   0  0  0  0  0  0  0  0  0  0  0  0
    2.6381   -0.9531   -4.9683 H   0  0  0  0  0  0  0  0  0  0  0  0
    1.3677   -1.1085   -2.8248 H   0  0  0  0  0  0  0  0  0  0  0  0
    3.7526   -3.8535   -0.7239 H   0  0  0  0  0  0  0  0  0  0  0  0
    4.4493   -5.3667    1.1260 H   0  0  0  0  0  0  0  0  0  0  0  0
    4.8253   -5.7762    3.3760 H   0  0  0  0  0  0  0  0  0  0  0  0
    3.1399   -5.9452    3.9082 H   0  0  0  0  0  0  0  0  0  0  0  0
    4.2211   -4.6010    4.5933 H   0  0  0  0  0  0  0  0  0  0  0  0
    2.4403   -2.9633    3.9324 H   0  0  0  0  0  0  0  0  0  0  0  0
    1.7415   -1.4265    2.1009 H   0  0  0  0  0  0  0  0  0  0  0  0
    1.6203    4.8986    0.1805 H   0  0  0  0  0  0  0  0  0  0  0  0
    2.2960    6.3295   -1.6622 H   0  0  0  0  0  0  0  0  0  0  0  0
    0.8322    6.5469   -4.7624 H   0  0  0  0  0  0  0  0  0  0  0  0
    2.3697    5.5113   -4.9424 H   0  0  0  0  0  0  0  0  0  0  0  0
    2.3153    6.9578   -3.8712 H   0  0  0  0  0  0  0  0  0  0  0  0
    0.1932    3.9437   -4.4287 H   0  0  0  0  0  0  0  0  0  0  0  0
   -0.5280    2.4634   -2.6229 H   0  0  0  0  0  0  0  0  0  0  0  0
   -0.0970    1.6742    2.3555 H   0  0  0  0  0  0  0  0  0  0  0  0
   -0.8677    2.7385    4.4847 H   0  0  0  0  0  0  0  0  0  0  0  0
   -0.8377    5.8558    5.2455 H   0  0  0  0  0  0  0  0  0  0  0  0
   -2.5167    5.9435    4.6350 H   0  0  0  0  0  0  0  0  0  0  0  0
   -2.0292    4.4487    5.5120 H   0  0  0  0  0  0  0  0  0  0  0  0
   -1.4589    6.4018    2.4316 H   0  0  0  0  0  0  0  0  0  0  0  0
   -0.7096    5.3371    0.3570 H   0  0  0  0  0  0  0  0  0  0  0  0
   -2.0319    1.3481    0.3110 H   0  0  0  0  0  0  0  0  0  0  0  0
   -4.0342   -3.4176    1.0739 H   0  0  0  0  0  0  0  0  0  0  0  0
   -4.3752   -5.4475   -0.2629 H   0  0  0  0  0  0  0  0  0  0  0  0
  1  2  1  0
  2  3  2  0
  3  4  1  0
  4  5  2  0
  5  6  1  0
  6  7  1  0
  7  8  2  0
  8  9  1  0
  9 10  2  0
 10 11  1  0
 10 12  1  0
 12 13  2  0
  6 14  1  0
 14 15  2  0
 15 16  1  0
 16 17  1  0
 17 18  1  0
 18 19  2  0
 19 20  1  0
 20 21  2  0
 21 22  1  0
 21 23  1  0
 23 24  2  0
 17 25  1  0
 25 26  2  0
 26 27  1  0
 27 28  2  0
 28 29  1  0
 28 30  1  0
 30 31  2  0
 16 32  2  0
 32 33  1  0
 33 34  2  0
 33 35  1  0
 32 36  1  0
 36 37  1  0
 37 38  1  0
 38 39  2  0
 39 40  1  0
 40 41  2  0
 41 42  1  0
 41 43  1  0
 43 44  2  0
 37 45  1  0
 45 46  2  0
 46 47  1  0
 47 48  2  0
 48 49  1  0
 48 50  1  0
 50 51  2  0
 36 52  2  0
  5 53  1  0
 53 54  2  0
 54  2  1  0
 13  7  1  0
 52 14  1  0
 24 18  1  0
 31 25  1  0
 44 38  1  0
 51 45  1  0
  1 55  1  0
  1 56  1  0
  1 57  1  0
  3 58  1  0
  4 59  1  0
  8 60  1  0
  9 61  1  0
 11 62  1  0
 11 63  1  0
 11 64  1  0
 12 65  1  0
 13 66  1  0
 15 67  1  0
 19 68  1  0
 20 69  1  0
 22 70  1  0
 22 71  1  0
 22 72  1  0
 23 73  1  0
 24 74  1  0
 26 75  1  0
 27 76  1  0
 29 77  1  0
 29 78  1  0
 29 79  1  0
 30 80  1  0
 31 81  1  0
 39 82  1  0
 40 83  1  0
 42 84  1  0
 42 85  1  0
 42 86  1  0
 43 87  1  0
 44 88  1  0
 46 89  1  0
 47 90  1  0
 49 91  1  0
 49 92  1  0
 49 93  1  0
 50 94  1  0
 51 95  1  0
 52 96  1  0
 53 97  1  0
 54 98  1  0
M  CHG  2  33   1  35  -1
M  END
