
     RDKit          3D

 80 86  0  0  0  0  0  0  0  0999 V2000
    0.1753   -3.5123    0.3761 O   0  0  0  0  0  0  0  0  0  0  0  0
   -0.2532   -2.6626   -0.4193 N   0  0  0  0  0  4  0  0  0  0  0  0
   -0.8671   -3.1125   -1.5607 O   0  0  0  0  0  1  0  0  0  0  0  0
   -0.1383   -1.2608   -0.2040 C   0  0  0  0  0  0  0  0  0  0  0  0
    1.1067   -0.6819   -0.3391 C   0  0  0  0  0  0  0  0  0  0  0  0
    2.2065   -1.5181   -0.6860 N   0  0  0  0  0  0  0  0  0  0  0  0
    2.2669   -2.2590   -1.8833 C   0  0  0  0  0  0  0  0  0  0  0  0
    2.9167   -3.4624   -1.9049 C   0  0  0  0  0  0  0  0  0  0  0  0
    3.0156   -4.2170   -3.0591 C   0  0  0  0  0  0  0  0  0  0  0  0
    2.4332   -3.7164   -4.2015 C   0  0  0  0  0  0  0  0  0  0  0  0
    2.5629   -4.7547   -5.8120 Br  0  0  0  0  0  0  0  0  0  0  0  0
    1.7681   -2.4989   -4.2059 C   0  0  0  0  0  0  0  0  0  0  0  0
    1.6886   -1.7695   -3.0321 C   0  0  0  0  0  0  0  0  0  0  0  0
    3.2829   -1.5968    0.2347 C   0  0  0  0  0  0  0  0  0  0  0  0
    3.0522   -1.3709    1.5999 C   0  0  0  0  0  0  0  0  0  0  0  0
    4.0782   -1.4247    2.4975 C   0  0  0  0  0  0  0  0  0  0  0  0
    5.3610   -1.6997    2.0968 C   0  0  0  0  0  0  0  0  0  0  0  0
    6.7583   -1.7625    3.4076 Br  0  0  0  0  0  0  0  0  0  0  0  0
    5.6062   -1.9231    0.7653 C   0  0  0  0  0  0  0  0  0  0  0  0
    4.5780   -1.8707   -0.1485 C   0  0  0  0  0  0  0  0  0  0  0  0
    1.2543    0.6947   -0.1287 C   0  0  0  0  0  0  0  0  0  0  0  0
    0.1719    1.4809    0.2118 C   0  0  0  0  0  0  0  0  0  0  0  0
    0.3069    2.8964    0.4222 N   0  0  0  0  0  0  0  0  0  0  0  0
    0.4269    3.3484    1.7705 C   0  0  0  0  0  0  0  0  0  0  0  0
    1.0486    4.5470    2.0483 C   0  0  0  0  0  0  0  0  0  0  0  0
    1.1682    5.0246    3.3497 C   0  0  0  0  0  0  0  0  0  0  0  0
    0.6490    4.2720    4.3795 C   0  0  0  0  0  0  0  0  0  0  0  0
    0.7854    4.8828    6.1960 Br  0  0  0  0  0  0  0  0  0  0  0  0
    0.0344    3.0819    4.0874 C   0  0  0  0  0  0  0  0  0  0  0  0
   -0.0873    2.6057    2.8095 C   0  0  0  0  0  0  0  0  0  0  0  0
    0.3178    3.8015   -0.6762 C   0  0  0  0  0  0  0  0  0  0  0  0
    0.8235    3.4217   -1.9114 C   0  0  0  0  0  0  0  0  0  0  0  0
    0.8328    4.2556   -3.0077 C   0  0  0  0  0  0  0  0  0  0  0  0
    0.3248    5.5357   -2.9137 C   0  0  0  0  0  0  0  0  0  0  0  0
    0.3218    6.7229   -4.4177 Br  0  0  0  0  0  0  0  0  0  0  0  0
   -0.1827    5.9339   -1.6966 C   0  0  0  0  0  0  0  0  0  0  0  0
   -0.1883    5.0784   -0.5869 C   0  0  0  0  0  0  0  0  0  0  0  0
   -1.0644    0.8639    0.3385 C   0  0  0  0  0  0  0  0  0  0  0  0
   -1.2390   -0.4860    0.1379 C   0  0  0  0  0  0  0  0  0  0  0  0
   -2.5251   -1.1165    0.2720 N   0  0  0  0  0  0  0  0  0  0  0  0
   -2.7517   -2.1436    1.2112 C   0  0  0  0  0  0  0  0  0  0  0  0
   -3.6694   -3.1477    1.0205 C   0  0  0  0  0  0  0  0  0  0  0  0
   -3.8822   -4.1402    1.9803 C   0  0  0  0  0  0  0  0  0  0  0  0
   -3.1604   -4.1333    3.1633 C   0  0  0  0  0  0  0  0  0  0  0  0
   -3.4515   -5.4866    4.4702 Br  0  0  0  0  0  0  0  0  0  0  0  0
   -2.2284   -3.1336    3.3817 C   0  0  0  0  0  0  0  0  0  0  0  0
   -2.0429   -2.1716    2.4181 C   0  0  0  0  0  0  0  0  0  0  0  0
   -3.5514   -0.6507   -0.5844 C   0  0  0  0  0  0  0  0  0  0  0  0
   -4.8968   -0.7398   -0.3222 C   0  0  0  0  0  0  0  0  0  0  0  0
   -5.8789   -0.2934   -1.1821 C   0  0  0  0  0  0  0  0  0  0  0  0
   -5.5226    0.2806   -2.3812 C   0  0  0  0  0  0  0  0  0  0  0  0
   -6.7997    0.9259   -3.6334 Br  0  0  0  0  0  0  0  0  0  0  0  0
   -4.1914    0.3827   -2.6678 C   0  0  0  0  0  0  0  0  0  0  0  0
   -3.2113   -0.0628   -1.8104 C   0  0  0  0  0  0  0  0  0  0  0  0
    3.3815   -3.9048   -1.0288 H   0  0  0  0  0  0  0  0  0  0  0  0
    3.5404   -5.1747   -3.0495 H   0  0  0  0  0  0  0  0  0  0  0  0
    1.3383   -2.1654   -5.1199 H   0  0  0  0  0  0  0  0  0  0  0  0
    1.1719   -0.8070   -3.0026 H   0  0  0  0  0  0  0  0  0  0  0  0
    2.0284   -1.1579    1.8704 H   0  0  0  0  0  0  0  0  0  0  0  0
    3.8625   -1.2426    3.5621 H   0  0  0  0  0  0  0  0  0  0  0  0
    6.6059   -2.1405    0.4316 H   0  0  0  0  0  0  0  0  0  0  0  0
    4.7704   -2.0330   -1.2086 H   0  0  0  0  0  0  0  0  0  0  0  0
    2.2342    1.1369   -0.2371 H   0  0  0  0  0  0  0  0  0  0  0  0
    1.4863    5.1717    1.2921 H   0  0  0  0  0  0  0  0  0  0  0  0
    1.6460    5.9508    3.5847 H   0  0  0  0  0  0  0  0  0  0  0  0
   -0.3674    2.4989    4.8852 H   0  0  0  0  0  0  0  0  0  0  0  0
   -0.5823    1.6477    2.5967 H   0  0  0  0  0  0  0  0  0  0  0  0
    1.2238    2.4183   -1.9936 H   0  0  0  0  0  0  0  0  0  0  0  0
    1.2349    3.9423   -3.9754 H   0  0  0  0  0  0  0  0  0  0  0  0
   -0.5902    6.9416   -1.5968 H   0  0  0  0  0  0  0  0  0  0  0  0
   -0.6136    5.4320    0.3470 H   0  0  0  0  0  0  0  0  0  0  0  0
   -1.8988    1.5073    0.6056 H   0  0  0  0  0  0  0  0  0  0  0  0
   -4.2484   -3.2056    0.1061 H   0  0  0  0  0  0  0  0  0  0  0  0
   -4.6074   -4.9173    1.8097 H   0  0  0  0  0  0  0  0  0  0  0  0
   -1.6459   -3.1147    4.3175 H   0  0  0  0  0  0  0  0  0  0  0  0
   -1.3169   -1.3582    2.5432 H   0  0  0  0  0  0  0  0  0  0  0  0
   -5.2344   -1.1646    0.6043 H   0  0  0  0  0  0  0  0  0  0  0  0
   -6.9318   -0.3731   -0.9585 H   0  0  0  0  0  0  0  0  0  0  0  0
   -3.8516    0.8318   -3.6090 H   0  0  0  0  0  0  0  0  0  0  0  0
   -2.1749    0.0230   -2.0461 H   0  0  0  0  0  0  0  0  0  0  0  0
  1  2  2  0
  2  3  1  0
  2  4  1  0
  4  5  2  0
  5  6  1  0
  6  7  1  0
  7  8  2  0
  8  9  1  0
  9 10  2  0
 10 11  1  0
 10 12  1  0
 12 13  2  0
  6 14  1  0
 14 15  2  0
 15 16  1  0
 16 17  2  0
 17 18  1  0
 17 19  1  0
 19 20  2  0
  5 21  1  0
 21 22  2  0
 22 23  1  0
 23 24  1  0
 24 25  2  0
 25 26  1  0
 26 27  2  0
 27 28  1  0
 27 29  1  0
 29 30  2  0
 23 31  1  0
 31 32  2  0
 32 33  1  0
 33 34  2  0
 34 35  1  0
 34 36  1  0
 36 37  2  0
 22 38  1  0
 38 39  2  0
 39 40  1  0
 40 41  1  0
 41 42  2  0
 42 43  1  0
 43 44  2  0
 44 45  1  0
 44 46  1  0
 46 47  2  0
 40 48  1  0
 48 49  2  0
 49 50  1  0
 50 51  2  0
 51 52  1  0
 51 53  1  0
 53 54  2  0
 39  4  1  0
 47 41  1  0
 54 48  1  0
 13  7  1  0
 20 14  1  0
 30 24  1  0
 37 31  1  0
  8 55  1  0
  9 56  1  0
 12 57  1  0
 13 58  1  0
 15 59  1  0
 16 60  1  0
 19 61  1  0
 20 62  1  0
 21 63  1  0
 25 64  1  0
 26 65  1  0
 29 66  1  0
 30 67  1  0
 32 68  1  0
 33 69  1  0
 36 70  1  0
 37 71  1  0
 38 72  1  0
 42 73  1  0
 43 74  1  0
 46 75  1  0
 47 76  1  0
 49 77  1  0
 50 78  1  0
 53 79  1  0
 54 80  1  0
M  CHG  2   2   1   3  -1
M  END
