
     RDKit          3D

 64 72  0  0  0  0  0  0  0  0999 V2000
    0.8137   -1.4049    2.0986 O   0  0  0  0  0  0  0  0  0  0  0  0
    0.4446   -0.7530    1.0983 C   0  0  0  0  0  0  0  0  0  0  0  0
   -0.9740   -0.5396    0.8872 C   0  0  0  0  0  0  0  0  0  0  0  0
   -1.8760   -1.0626    1.7970 C   0  0  0  0  0  0  0  0  0  0  0  0
   -3.2179   -0.8474    1.5762 C   0  0  0  0  0  0  0  0  0  0  0  0
   -3.6979   -0.1358    0.4912 C   0  0  0  0  0  0  0  0  0  0  0  0
   -5.1070    0.0594    0.3080 N   0  0  0  0  0  0  0  0  0  0  0  0
   -6.0059   -0.8095   -0.1386 C   0  0  0  0  0  0  0  0  0  0  0  0
   -5.8726   -2.1127   -0.5478 C   0  0  0  0  0  0  0  0  0  0  0  0
   -6.9805   -2.8067   -0.9732 C   0  0  0  0  0  0  0  0  0  0  0  0
   -8.2481   -2.2276   -1.0040 C   0  0  0  0  0  0  0  0  0  0  0  0
   -8.3913   -0.9187   -0.5946 C   0  0  0  0  0  0  0  0  0  0  0  0
   -7.2719   -0.2352   -0.1707 C   0  0  0  0  0  0  0  0  0  0  0  0
   -7.1114    1.0562    0.2862 C   0  0  0  0  0  0  0  0  0  0  0  0
   -8.0081    2.0955    0.4734 C   0  0  0  0  0  0  0  0  0  0  0  0
   -7.5193    3.2917    0.9566 C   0  0  0  0  0  0  0  0  0  0  0  0
   -6.1871    3.4913    1.2573 C   0  0  0  0  0  0  0  0  0  0  0  0
   -5.3249    2.4339    1.0580 C   0  0  0  0  0  0  0  0  0  0  0  0
   -5.7524    1.2175    0.5789 C   0  0  0  0  0  0  0  0  0  0  0  0
   -2.8067    0.3815   -0.4085 C   0  0  0  0  0  0  0  0  0  0  0  0
   -1.4620    0.1712   -0.1957 C   0  0  0  0  0  0  0  0  0  0  0  0
   -0.4985    0.7298   -1.1675 C   0  0  0  0  0  0  0  0  0  0  0  0
   -0.9140    1.3833   -2.1661 O   0  0  0  0  0  0  0  0  0  0  0  0
    0.9297    0.5184   -0.9604 C   0  0  0  0  0  0  0  0  0  0  0  0
    1.8630    1.0289   -1.8532 C   0  0  0  0  0  0  0  0  0  0  0  0
    3.1984    0.8252   -1.6499 C   0  0  0  0  0  0  0  0  0  0  0  0
    3.6897    0.1101   -0.5605 C   0  0  0  0  0  0  0  0  0  0  0  0
    5.0828   -0.0958   -0.3591 N   0  0  0  0  0  0  0  0  0  0  0  0
    5.7432   -1.2902   -0.3808 C   0  0  0  0  0  0  0  0  0  0  0  0
    5.3353   -2.5878   -0.5849 C   0  0  0  0  0  0  0  0  0  0  0  0
    6.2401   -3.6294   -0.5512 C   0  0  0  0  0  0  0  0  0  0  0  0
    7.5751   -3.3775   -0.3102 C   0  0  0  0  0  0  0  0  0  0  0  0
    8.0146   -2.1006   -0.1032 C   0  0  0  0  0  0  0  0  0  0  0  0
    7.0863   -1.0857   -0.1436 C   0  0  0  0  0  0  0  0  0  0  0  0
    7.2698    0.2772    0.0315 C   0  0  0  0  0  0  0  0  0  0  0  0
    8.3753    1.0584    0.2923 C   0  0  0  0  0  0  0  0  0  0  0  0
    8.2637    2.4264    0.4206 C   0  0  0  0  0  0  0  0  0  0  0  0
    7.0175    2.9925    0.2812 C   0  0  0  0  0  0  0  0  0  0  0  0
    5.9281    2.1988    0.0217 C   0  0  0  0  0  0  0  0  0  0  0  0
    6.0231    0.8273   -0.1096 C   0  0  0  0  0  0  0  0  0  0  0  0
    2.7514   -0.3910    0.3178 C   0  0  0  0  0  0  0  0  0  0  0  0
    1.3968   -0.1928    0.1251 C   0  0  0  0  0  0  0  0  0  0  0  0
   -1.5698   -1.6286    2.6666 H   0  0  0  0  0  0  0  0  0  0  0  0
   -3.9549   -1.2394    2.2634 H   0  0  0  0  0  0  0  0  0  0  0  0
   -4.8860   -2.5649   -0.5243 H   0  0  0  0  0  0  0  0  0  0  0  0
   -6.8518   -3.8452   -1.2953 H   0  0  0  0  0  0  0  0  0  0  0  0
   -9.0895   -2.8161   -1.3474 H   0  0  0  0  0  0  0  0  0  0  0  0
   -9.3867   -0.4996   -0.6307 H   0  0  0  0  0  0  0  0  0  0  0  0
   -9.0477    1.9451    0.2406 H   0  0  0  0  0  0  0  0  0  0  0  0
   -8.1956    4.1235    1.1137 H   0  0  0  0  0  0  0  0  0  0  0  0
   -5.8056    4.4304    1.6362 H   0  0  0  0  0  0  0  0  0  0  0  0
   -4.2744    2.5380    1.2774 H   0  0  0  0  0  0  0  0  0  0  0  0
   -3.1894    0.9421   -1.2628 H   0  0  0  0  0  0  0  0  0  0  0  0
    1.4722    1.5827   -2.6960 H   0  0  0  0  0  0  0  0  0  0  0  0
    3.9176    1.2227   -2.3444 H   0  0  0  0  0  0  0  0  0  0  0  0
    4.2936   -2.7979   -0.7744 H   0  0  0  0  0  0  0  0  0  0  0  0
    5.9344   -4.6605   -0.7104 H   0  0  0  0  0  0  0  0  0  0  0  0
    8.3051   -4.1924   -0.2802 H   0  0  0  0  0  0  0  0  0  0  0  0
    9.0561   -1.8983    0.0854 H   0  0  0  0  0  0  0  0  0  0  0  0
    9.3537    0.5900    0.3991 H   0  0  0  0  0  0  0  0  0  0  0  0
    9.1378    3.0504    0.6274 H   0  0  0  0  0  0  0  0  0  0  0  0
    6.9132    4.0590    0.3785 H   0  0  0  0  0  0  0  0  0  0  0  0
    4.9486    2.6492   -0.0872 H   0  0  0  0  0  0  0  0  0  0  0  0
    3.1048   -0.9604    1.1887 H   0  0  0  0  0  0  0  0  0  0  0  0
  1  2  2  0
  2  3  1  0
  3  4  2  0
  4  5  1  0
  5  6  2  0
  6  7  1  0
  7  8  1  0
  8  9  2  0
  9 10  1  0
 10 11  2  0
 11 12  1  0
 12 13  2  0
 13 14  1  0
 14 15  2  0
 15 16  1  0
 16 17  2  0
 17 18  1  0
 18 19  2  0
  6 20  1  0
 20 21  2  0
 21 22  1  0
 22 23  2  0
 22 24  1  0
 24 25  2  0
 25 26  1  0
 26 27  2  0
 27 28  1  0
 28 29  1  0
 29 30  2  0
 30 31  1  0
 31 32  2  0
 32 33  1  0
 33 34  2  0
 34 35  1  0
 35 36  2  0
 36 37  1  0
 37 38  2  0
 38 39  1  0
 39 40  2  0
 27 41  1  0
 41 42  2  0
 42  2  1  0
 21  3  1  0
 42 24  1  0
 19  7  1  0
 40 28  1  0
 13  8  1  0
 19 14  1  0
 34 29  1  0
 40 35  1  0
  4 43  1  0
  5 44  1  0
  9 45  1  0
 10 46  1  0
 11 47  1  0
 12 48  1  0
 15 49  1  0
 16 50  1  0
 17 51  1  0
 18 52  1  0
 20 53  1  0
 25 54  1  0
 26 55  1  0
 30 56  1  0
 31 57  1  0
 32 58  1  0
 33 59  1  0
 36 60  1  0
 37 61  1  0
 38 62  1  0
 39 63  1  0
 41 64  1  0
M  END
