
     RDKit          3D

113128  0  0  0  0  0  0  0  0999 V2000
    0.1020   -4.6982    0.3937 N   0  0  0  0  0  0  0  0  0  0  0  0
    0.0767   -3.5522    0.2914 C   0  0  0  0  0  0  0  0  0  0  0  0
    0.0498   -2.1344    0.1408 C   0  0  0  0  0  0  0  0  0  0  0  0
   -1.1679   -1.4750    0.2782 C   0  0  0  0  0  0  0  0  0  0  0  0
   -2.3590   -2.1763    0.5783 N   0  0  0  0  0  0  0  0  0  0  0  0
   -3.1720   -2.9289   -0.1824 C   0  0  0  0  0  0  0  0  0  0  0  0
   -3.0840   -3.2824   -1.5301 C   0  0  0  0  0  0  0  0  0  0  0  0
   -4.0263   -4.0914   -2.1253 C   0  0  0  0  0  0  0  0  0  0  0  0
   -5.0862   -4.5794   -1.4133 C   0  0  0  0  0  0  0  0  0  0  0  0
   -5.1871   -4.2345   -0.0619 C   0  0  0  0  0  0  0  0  0  0  0  0
   -4.2271   -3.4197    0.5135 C   0  0  0  0  0  0  0  0  0  0  0  0
   -4.0888   -2.9613    1.7939 C   0  0  0  0  0  0  0  0  0  0  0  0
   -4.8442   -3.1524    2.9056 C   0  0  0  0  0  0  0  0  0  0  0  0
   -4.4973   -2.6007    4.1059 C   0  0  0  0  0  0  0  0  0  0  0  0
   -3.3499   -1.8402    4.1517 C   0  0  0  0  0  0  0  0  0  0  0  0
   -2.5891   -1.6530    3.0128 C   0  0  0  0  0  0  0  0  0  0  0  0
   -2.9179   -2.1960    1.7953 C   0  0  0  0  0  0  0  0  0  0  0  0
   -1.1835   -0.1052    0.1325 C   0  0  0  0  0  0  0  0  0  0  0  0
   -2.4159    0.6110    0.2590 N   0  0  0  0  0  0  0  0  0  0  0  0
   -2.7670    1.3543    1.3219 C   0  0  0  0  0  0  0  0  0  0  0  0
   -2.1355    1.6587    2.5463 C   0  0  0  0  0  0  0  0  0  0  0  0
   -2.7399    2.4588    3.4617 C   0  0  0  0  0  0  0  0  0  0  0  0
   -3.9838    2.9700    3.1766 C   0  0  0  0  0  0  0  0  0  0  0  0
   -4.6356    2.6896    1.9808 C   0  0  0  0  0  0  0  0  0  0  0  0
   -4.0120    1.8760    1.0576 C   0  0  0  0  0  0  0  0  0  0  0  0
   -4.3773    1.4125   -0.1900 C   0  0  0  0  0  0  0  0  0  0  0  0
   -5.5370    1.6193   -0.9469 C   0  0  0  0  0  0  0  0  0  0  0  0
   -5.6590    1.0278   -2.1790 C   0  0  0  0  0  0  0  0  0  0  0  0
   -4.6577    0.2218   -2.7058 C   0  0  0  0  0  0  0  0  0  0  0  0
   -3.5259    0.0318   -1.9447 C   0  0  0  0  0  0  0  0  0  0  0  0
   -3.3688    0.6158   -0.6903 C   0  0  0  0  0  0  0  0  0  0  0  0
    0.0099    0.5972   -0.1473 C   0  0  0  0  0  0  0  0  0  0  0  0
   -0.0274    2.0236   -0.2769 N   0  0  0  0  0  0  0  0  0  0  0  0
    0.4246    2.8540    0.6750 C   0  0  0  0  0  0  0  0  0  0  0  0
    1.0207    2.6887    1.9380 C   0  0  0  0  0  0  0  0  0  0  0  0
    1.3894    3.7748    2.6934 C   0  0  0  0  0  0  0  0  0  0  0  0
    1.1751    5.0504    2.2138 C   0  0  0  0  0  0  0  0  0  0  0  0
    0.5866    5.2254    0.9680 C   0  0  0  0  0  0  0  0  0  0  0  0
    0.2093    4.1234    0.1942 C   0  0  0  0  0  0  0  0  0  0  0  0
   -0.3746    4.0345   -1.0503 C   0  0  0  0  0  0  0  0  0  0  0  0
   -0.7990    4.9721   -1.9702 C   0  0  0  0  0  0  0  0  0  0  0  0
   -1.3634    4.5921   -3.1720 C   0  0  0  0  0  0  0  0  0  0  0  0
   -1.4947    3.2379   -3.4361 C   0  0  0  0  0  0  0  0  0  0  0  0
   -1.0879    2.2895   -2.5548 C   0  0  0  0  0  0  0  0  0  0  0  0
   -0.5161    2.6954   -1.3348 C   0  0  0  0  0  0  0  0  0  0  0  0
    1.2113   -0.0709   -0.2807 C   0  0  0  0  0  0  0  0  0  0  0  0
    2.3991    0.6437   -0.5434 N   0  0  0  0  0  0  0  0  0  0  0  0
    2.7426    1.2039   -1.7012 C   0  0  0  0  0  0  0  0  0  0  0  0
    2.1340    1.2654   -2.9261 C   0  0  0  0  0  0  0  0  0  0  0  0
    2.6979    1.9134   -4.0137 C   0  0  0  0  0  0  0  0  0  0  0  0
    3.9183    2.5335   -3.9040 C   0  0  0  0  0  0  0  0  0  0  0  0
    4.5594    2.4892   -2.6822 C   0  0  0  0  0  0  0  0  0  0  0  0
    3.9786    1.8389   -1.6157 C   0  0  0  0  0  0  0  0  0  0  0  0
    4.4091    1.6525   -0.3395 C   0  0  0  0  0  0  0  0  0  0  0  0
    5.5704    2.0498    0.3153 C   0  0  0  0  0  0  0  0  0  0  0  0
    5.7660    1.7059    1.6548 C   0  0  0  0  0  0  0  0  0  0  0  0
    4.8018    0.9768    2.3041 C   0  0  0  0  0  0  0  0  0  0  0  0
    3.6619    0.6031    1.6120 C   0  0  0  0  0  0  0  0  0  0  0  0
    3.4432    0.9296    0.2899 C   0  0  0  0  0  0  0  0  0  0  0  0
    1.2047   -1.4491   -0.1309 C   0  0  0  0  0  0  0  0  0  0  0  0
    2.3963   -2.2035   -0.2451 N   0  0  0  0  0  0  0  0  0  0  0  0
    2.9759   -2.7907    0.8412 C   0  0  0  0  0  0  0  0  0  0  0  0
    2.6501   -2.8459    2.1804 C   0  0  0  0  0  0  0  0  0  0  0  0
    3.4055   -3.5218    3.1051 C   0  0  0  0  0  0  0  0  0  0  0  0
    4.5337   -4.1774    2.7149 C   0  0  0  0  0  0  0  0  0  0  0  0
    4.8910   -4.1432    1.3802 C   0  0  0  0  0  0  0  0  0  0  0  0
    4.1296   -3.4644    0.4568 C   0  0  0  0  0  0  0  0  0  0  0  0
    4.2535   -3.2817   -0.8963 C   0  0  0  0  0  0  0  0  0  0  0  0
    5.2007   -3.7247   -1.7945 C   0  0  0  0  0  0  0  0  0  0  0  0
    5.0592   -3.3766   -3.1371 C   0  0  0  0  0  0  0  0  0  0  0  0
    4.0018   -2.6163   -3.5292 C   0  0  0  0  0  0  0  0  0  0  0  0
    3.0637   -2.1841   -2.6067 C   0  0  0  0  0  0  0  0  0  0  0  0
    3.1780   -2.5108   -1.2795 C   0  0  0  0  0  0  0  0  0  0  0  0
   -2.2681   -2.9297   -2.1475 H   0  0  0  0  0  0  0  0  0  0  0  0
   -3.9664   -4.3745   -3.1779 H   0  0  0  0  0  0  0  0  0  0  0  0
   -5.8572   -5.2186   -1.8263 H   0  0  0  0  0  0  0  0  0  0  0  0
   -6.0163   -4.6063    0.5267 H   0  0  0  0  0  0  0  0  0  0  0  0
   -5.7422   -3.7543    2.8439 H   0  0  0  0  0  0  0  0  0  0  0  0
   -5.0780   -2.7342    5.0094 H   0  0  0  0  0  0  0  0  0  0  0  0
   -3.0682   -1.4000    5.0958 H   0  0  0  0  0  0  0  0  0  0  0  0
   -1.6995   -1.0580    3.1589 H   0  0  0  0  0  0  0  0  0  0  0  0
   -1.1662    1.2205    2.7436 H   0  0  0  0  0  0  0  0  0  0  0  0
   -2.2378    2.6802    4.3929 H   0  0  0  0  0  0  0  0  0  0  0  0
   -4.4654    3.6068    3.9039 H   0  0  0  0  0  0  0  0  0  0  0  0
   -5.6058    3.1010    1.7847 H   0  0  0  0  0  0  0  0  0  0  0  0
   -6.2878    2.2499   -0.5041 H   0  0  0  0  0  0  0  0  0  0  0  0
   -6.5563    1.2020   -2.7381 H   0  0  0  0  0  0  0  0  0  0  0  0
   -4.7233   -0.2531   -3.6646 H   0  0  0  0  0  0  0  0  0  0  0  0
   -2.6995   -0.5794   -2.3087 H   0  0  0  0  0  0  0  0  0  0  0  0
    1.1618    1.6781    2.2964 H   0  0  0  0  0  0  0  0  0  0  0  0
    1.8440    3.6111    3.6556 H   0  0  0  0  0  0  0  0  0  0  0  0
    1.4682    5.8949    2.8158 H   0  0  0  0  0  0  0  0  0  0  0  0
    0.3993    6.1941    0.5519 H   0  0  0  0  0  0  0  0  0  0  0  0
   -0.6577    6.0086   -1.6820 H   0  0  0  0  0  0  0  0  0  0  0  0
   -1.6912    5.3500   -3.8794 H   0  0  0  0  0  0  0  0  0  0  0  0
   -1.9448    2.9399   -4.3923 H   0  0  0  0  0  0  0  0  0  0  0  0
   -1.1505    1.2193   -2.7359 H   0  0  0  0  0  0  0  0  0  0  0  0
    1.1849    0.7902   -3.1153 H   0  0  0  0  0  0  0  0  0  0  0  0
    2.2037    1.9534   -4.9744 H   0  0  0  0  0  0  0  0  0  0  0  0
    4.3882    3.0536   -4.7445 H   0  0  0  0  0  0  0  0  0  0  0  0
    5.5212    2.9833   -2.6150 H   0  0  0  0  0  0  0  0  0  0  0  0
    6.3055    2.6229   -0.2312 H   0  0  0  0  0  0  0  0  0  0  0  0
    6.6689    2.0252    2.1405 H   0  0  0  0  0  0  0  0  0  0  0  0
    4.9631    0.7166    3.3408 H   0  0  0  0  0  0  0  0  0  0  0  0
    2.9292    0.0296    2.1704 H   0  0  0  0  0  0  0  0  0  0  0  0
    1.7504   -2.3352    2.5551 H   0  0  0  0  0  0  0  0  0  0  0  0
    3.1352   -3.5572    4.1512 H   0  0  0  0  0  0  0  0  0  0  0  0
    5.1451   -4.7220    3.4475 H   0  0  0  0  0  0  0  0  0  0  0  0
    5.7847   -4.6681    1.0981 H   0  0  0  0  0  0  0  0  0  0  0  0
    6.0413   -4.3299   -1.4789 H   0  0  0  0  0  0  0  0  0  0  0  0
    5.8117   -3.7305   -3.8359 H   0  0  0  0  0  0  0  0  0  0  0  0
    3.9094   -2.3542   -4.5874 H   0  0  0  0  0  0  0  0  0  0  0  0
    2.2436   -1.5957   -2.9402 H   0  0  0  0  0  0  0  0  0  0  0  0
  1  2  3  0
  2  3  1  0
  3  4  2  0
  4  5  1  0
  5  6  1  0
  6  7  2  0
  7  8  1  0
  8  9  2  0
  9 10  1  0
 10 11  2  0
 11 12  1  0
 12 13  2  0
 13 14  1  0
 14 15  2  0
 15 16  1  0
 16 17  2  0
  4 18  1  0
 18 19  1  0
 19 20  1  0
 20 21  2  0
 21 22  1  0
 22 23  2  0
 23 24  1  0
 24 25  2  0
 25 26  1  0
 26 27  2  0
 27 28  1  0
 28 29  2  0
 29 30  1  0
 30 31  2  0
 18 32  2  0
 32 33  1  0
 33 34  1  0
 34 35  2  0
 35 36  1  0
 36 37  2  0
 37 38  1  0
 38 39  2  0
 39 40  1  0
 40 41  2  0
 41 42  1  0
 42 43  2  0
 43 44  1  0
 44 45  2  0
 32 46  1  0
 46 47  1  0
 47 48  1  0
 48 49  2  0
 49 50  1  0
 50 51  2  0
 51 52  1  0
 52 53  2  0
 53 54  1  0
 54 55  2  0
 55 56  1  0
 56 57  2  0
 57 58  1  0
 58 59  2  0
 46 60  2  0
 60 61  1  0
 61 62  1  0
 62 63  2  0
 63 64  1  0
 64 65  2  0
 65 66  1  0
 66 67  2  0
 67 68  1  0
 68 69  2  0
 69 70  1  0
 70 71  2  0
 71 72  1  0
 72 73  2  0
 60  3  1  0
 73 61  1  0
 17  5  1  0
 31 19  1  0
 45 33  1  0
 59 47  1  0
 67 62  1  0
 73 68  1  0
 11  6  1  0
 17 12  1  0
 25 20  1  0
 31 26  1  0
 39 34  1  0
 45 40  1  0
 53 48  1  0
 59 54  1  0
  7 74  1  0
  8 75  1  0
  9 76  1  0
 10 77  1  0
 13 78  1  0
 14 79  1  0
 15 80  1  0
 16 81  1  0
 21 82  1  0
 22 83  1  0
 23 84  1  0
 24 85  1  0
 27 86  1  0
 28 87  1  0
 29 88  1  0
 30 89  1  0
 35 90  1  0
 36 91  1  0
 37 92  1  0
 38 93  1  0
 41 94  1  0
 42 95  1  0
 43 96  1  0
 44 97  1  0
 49 98  1  0
 50 99  1  0
 51100  1  0
 52101  1  0
 55102  1  0
 56103  1  0
 57104  1  0
 58105  1  0
 63106  1  0
 64107  1  0
 65108  1  0
 66109  1  0
 69110  1  0
 70111  1  0
 71112  1  0
 72113  1  0
M  END
