
     RDKit          3D

 46 50  0  0  0  0  0  0  0  0999 V2000
   -4.2676    0.5033   -3.7918 C   0  0  0  0  0  0  0  0  0  0  0  0
   -3.0531    1.0777   -3.5335 C   0  0  0  0  0  0  0  0  0  0  0  0
   -2.4672    0.9187   -2.2950 C   0  0  0  0  0  0  0  0  0  0  0  0
   -3.0774    0.1805   -1.2775 C   0  0  0  0  0  0  0  0  0  0  0  0
   -2.4409    0.0192   -0.0184 N   0  0  0  0  0  0  0  0  0  0  0  0
   -3.1485   -0.1447    1.1926 C   0  0  0  0  0  0  0  0  0  0  0  0
   -4.4136    0.3772    1.3727 C   0  0  0  0  0  0  0  0  0  0  0  0
   -5.0518    0.1586    2.5705 C   0  0  0  0  0  0  0  0  0  0  0  0
   -4.4909   -0.5513    3.5918 C   0  0  0  0  0  0  0  0  0  0  0  0
   -3.2380   -1.0708    3.4203 C   0  0  0  0  0  0  0  0  0  0  0  0
   -2.5673   -0.8739    2.2356 C   0  0  0  0  0  0  0  0  0  0  0  0
   -1.0200    0.0022    0.0203 C   0  0  0  0  0  0  0  0  0  0  0  0
   -0.3422   -0.5001   -1.0634 C   0  0  0  0  0  0  0  0  0  0  0  0
    1.0333   -0.5026   -1.0472 C   0  0  0  0  0  0  0  0  0  0  0  0
    1.7586   -0.0154    0.0262 C   0  0  0  0  0  0  0  0  0  0  0  0
    3.2348   -0.0655   -0.0707 C   0  0  0  0  0  0  0  0  0  0  0  0
    4.1436    0.3243    0.7817 N   0  0  0  0  0  0  0  0  0  0  0  0
    5.4114    0.2007    0.5172 C   0  0  0  0  0  0  0  0  0  0  0  0
    6.4740    0.5806    1.3450 C   0  0  0  0  0  0  0  0  0  0  0  0
    7.7725    0.3990    0.9508 C   0  0  0  0  0  0  0  0  0  0  0  0
    8.1122   -0.1582   -0.2622 C   0  0  0  0  0  0  0  0  0  0  0  0
    7.0805   -0.5351   -1.0834 C   0  0  0  0  0  0  0  0  0  0  0  0
    5.7454   -0.3548   -0.6920 C   0  0  0  0  0  0  0  0  0  0  0  0
    4.2024   -0.6597   -1.3620 S   0  0  0  0  0  0  0  0  0  0  0  0
    1.1051    0.4832    1.1031 C   0  0  0  0  0  0  0  0  0  0  0  0
   -0.2935    0.4944    1.1049 C   0  0  0  0  0  0  0  0  0  0  0  0
   -4.2961   -0.3788   -1.5811 C   0  0  0  0  0  0  0  0  0  0  0  0
   -4.9110   -0.2386   -2.8115 C   0  0  0  0  0  0  0  0  0  0  0  0
   -4.7565    0.6124   -4.7621 H   0  0  0  0  0  0  0  0  0  0  0  0
   -2.5683    1.6516   -4.3098 H   0  0  0  0  0  0  0  0  0  0  0  0
   -1.5060    1.3801   -2.0868 H   0  0  0  0  0  0  0  0  0  0  0  0
   -4.8610    0.9438    0.5756 H   0  0  0  0  0  0  0  0  0  0  0  0
   -6.0475    0.5743    2.6991 H   0  0  0  0  0  0  0  0  0  0  0  0
   -5.0540   -0.6840    4.5119 H   0  0  0  0  0  0  0  0  0  0  0  0
   -2.7775   -1.6328    4.2113 H   0  0  0  0  0  0  0  0  0  0  0  0
   -1.5817   -1.3160    2.1564 H   0  0  0  0  0  0  0  0  0  0  0  0
   -0.8543   -0.9041   -1.9415 H   0  0  0  0  0  0  0  0  0  0  0  0
    1.5410   -0.9039   -1.9134 H   0  0  0  0  0  0  0  0  0  0  0  0
    6.2774    1.0349    2.3345 H   0  0  0  0  0  0  0  0  0  0  0  0
    8.5811    0.7183    1.6455 H   0  0  0  0  0  0  0  0  0  0  0  0
    9.1447   -0.2704   -0.5060 H   0  0  0  0  0  0  0  0  0  0  0  0
    7.2746   -0.9755   -2.0408 H   0  0  0  0  0  0  0  0  0  0  0  0
    1.6498    0.8666    1.9471 H   0  0  0  0  0  0  0  0  0  0  0  0
   -0.7854    0.8977    1.9584 H   0  0  0  0  0  0  0  0  0  0  0  0
   -4.7908   -0.9607   -0.8197 H   0  0  0  0  0  0  0  0  0  0  0  0
   -5.8804   -0.7023   -3.0028 H   0  0  0  0  0  0  0  0  0  0  0  0
  1  2  2  0
  2  3  1  0
  3  4  2  0
  4  5  1  0
  5  6  1  0
  6  7  2  0
  7  8  1  0
  8  9  2  0
  9 10  1  0
 10 11  2  0
  5 12  1  0
 12 13  2  0
 13 14  1  0
 14 15  2  0
 15 16  1  0
 16 17  2  0
 17 18  1  0
 18 19  2  0
 19 20  1  0
 20 21  2  0
 21 22  1  0
 22 23  2  0
 23 24  1  0
 15 25  1  0
 25 26  2  0
  4 27  1  0
 27 28  2  0
 28  1  1  0
 11  6  1  0
 26 12  1  0
 24 16  1  0
 23 18  1  0
  1 29  1  0
  2 30  1  0
  3 31  1  0
  7 32  1  0
  8 33  1  0
  9 34  1  0
 10 35  1  0
 11 36  1  0
 13 37  1  0
 14 38  1  0
 19 39  1  0
 20 40  1  0
 21 41  1  0
 22 42  1  0
 25 43  1  0
 26 44  1  0
 27 45  1  0
 28 46  1  0
M  END
