
     RDKit          3D

 94106  0  0  0  0  0  0  0  0999 V2000
    3.5022    2.7736   -0.6199 N   0  0  0  0  0  0  0  0  0  0  0  0
    2.7449    1.9145   -0.4352 C   0  0  0  0  0  0  0  0  0  0  0  0
    1.8286    0.8553   -0.2009 C   0  0  0  0  0  0  0  0  0  0  0  0
    2.2875   -0.4320   -0.0097 C   0  0  0  0  0  0  0  0  0  0  0  0
    3.6708   -0.7158   -0.0513 N   0  0  0  0  0  0  0  0  0  0  0  0
    4.4650   -0.8583    1.0006 C   0  0  0  0  0  0  0  0  0  0  0  0
    4.2487   -0.7914    2.3640 C   0  0  0  0  0  0  0  0  0  0  0  0
    5.2779   -0.9841    3.2588 C   0  0  0  0  0  0  0  0  0  0  0  0
    6.5505   -1.2490    2.7990 C   0  0  0  0  0  0  0  0  0  0  0  0
    6.7922   -1.3209    1.4461 C   0  0  0  0  0  0  0  0  0  0  0  0
    5.7544   -1.1260    0.5789 C   0  0  0  0  0  0  0  0  0  0  0  0
    5.7161   -1.1416   -0.7926 C   0  0  0  0  0  0  0  0  0  0  0  0
    6.6526   -1.3470   -1.7831 C   0  0  0  0  0  0  0  0  0  0  0  0
    6.3354   -1.3052   -3.1110 C   0  0  0  0  0  0  0  0  0  0  0  0
    5.0321   -1.0486   -3.4883 C   0  0  0  0  0  0  0  0  0  0  0  0
    4.0769   -0.8394   -2.5038 C   0  0  0  0  0  0  0  0  0  0  0  0
    4.4036   -0.8829   -1.1643 C   0  0  0  0  0  0  0  0  0  0  0  0
    1.4211   -1.4634    0.2163 C   0  0  0  0  0  0  0  0  0  0  0  0
    1.8231   -2.8232    0.4253 C   0  0  0  0  0  0  0  0  0  0  0  0
    2.1685   -3.9130    0.5900 N   0  0  0  0  0  0  0  0  0  0  0  0
    0.0660   -1.1874    0.2491 C   0  0  0  0  0  0  0  0  0  0  0  0
   -0.8410   -2.2821    0.4737 N   0  0  0  0  0  0  0  0  0  0  0  0
   -1.2176   -2.7024    1.6846 C   0  0  0  0  0  0  0  0  0  0  0  0
   -0.9195   -2.3385    3.0025 C   0  0  0  0  0  0  0  0  0  0  0  0
   -1.5035   -3.0291    4.0394 C   0  0  0  0  0  0  0  0  0  0  0  0
   -2.3783   -4.0758    3.8495 C   0  0  0  0  0  0  0  0  0  0  0  0
   -2.6548   -4.4158    2.5419 C   0  0  0  0  0  0  0  0  0  0  0  0
   -2.0893   -3.7474    1.4608 C   0  0  0  0  0  0  0  0  0  0  0  0
   -2.2107   -3.9298    0.0922 C   0  0  0  0  0  0  0  0  0  0  0  0
   -2.9369   -4.8423   -0.6592 C   0  0  0  0  0  0  0  0  0  0  0  0
   -2.8346   -4.7860   -2.0513 C   0  0  0  0  0  0  0  0  0  0  0  0
   -2.0197   -3.8321   -2.6441 C   0  0  0  0  0  0  0  0  0  0  0  0
   -1.3071   -2.9372   -1.9188 C   0  0  0  0  0  0  0  0  0  0  0  0
   -1.4126   -2.9951   -0.5141 C   0  0  0  0  0  0  0  0  0  0  0  0
   -0.4106    0.1210    0.0554 C   0  0  0  0  0  0  0  0  0  0  0  0
   -1.8190    0.3668    0.0980 N   0  0  0  0  0  0  0  0  0  0  0  0
   -2.6339    0.3693   -0.9677 C   0  0  0  0  0  0  0  0  0  0  0  0
   -2.4477    0.1688   -2.3499 C   0  0  0  0  0  0  0  0  0  0  0  0
   -3.4792    0.2352   -3.2317 C   0  0  0  0  0  0  0  0  0  0  0  0
   -4.7671    0.5117   -2.7489 C   0  0  0  0  0  0  0  0  0  0  0  0
   -4.9442    0.7072   -1.3968 C   0  0  0  0  0  0  0  0  0  0  0  0
   -3.9033    0.6413   -0.4993 C   0  0  0  0  0  0  0  0  0  0  0  0
   -3.7974    0.7970    0.8720 C   0  0  0  0  0  0  0  0  0  0  0  0
   -4.7582    1.0843    1.8353 C   0  0  0  0  0  0  0  0  0  0  0  0
   -4.4180    1.2007    3.1677 C   0  0  0  0  0  0  0  0  0  0  0  0
   -3.0737    1.0207    3.5196 C   0  0  0  0  0  0  0  0  0  0  0  0
   -2.1300    0.7393    2.5795 C   0  0  0  0  0  0  0  0  0  0  0  0
   -2.4794    0.6227    1.2376 C   0  0  0  0  0  0  0  0  0  0  0  0
    0.4829    1.1482   -0.1714 C   0  0  0  0  0  0  0  0  0  0  0  0
   -0.0094    2.4614   -0.3743 N   0  0  0  0  0  0  0  0  0  0  0  0
   -0.2304    2.9681   -1.5957 C   0  0  0  0  0  0  0  0  0  0  0  0
   -0.0751    2.4907   -2.8738 C   0  0  0  0  0  0  0  0  0  0  0  0
   -0.3697    3.2299   -4.0078 C   0  0  0  0  0  0  0  0  0  0  0  0
   -0.8446    4.5149   -3.8637 C   0  0  0  0  0  0  0  0  0  0  0  0
   -1.0133    5.0292   -2.6056 C   0  0  0  0  0  0  0  0  0  0  0  0
   -0.7126    4.2726   -1.4953 C   0  0  0  0  0  0  0  0  0  0  0  0
   -0.7830    4.5630   -0.1661 C   0  0  0  0  0  0  0  0  0  0  0  0
   -1.1761    5.7039    0.5023 C   0  0  0  0  0  0  0  0  0  0  0  0
   -1.1380    5.7416    1.8738 C   0  0  0  0  0  0  0  0  0  0  0  0
   -0.6967    4.6094    2.5533 C   0  0  0  0  0  0  0  0  0  0  0  0
   -0.3086    3.4798    1.8615 C   0  0  0  0  0  0  0  0  0  0  0  0
   -0.3456    3.4361    0.4848 C   0  0  0  0  0  0  0  0  0  0  0  0
    3.2590   -0.5845    2.7757 H   0  0  0  0  0  0  0  0  0  0  0  0
    5.0735   -0.9247    4.3145 H   0  0  0  0  0  0  0  0  0  0  0  0
    7.3805   -1.4048    3.4793 H   0  0  0  0  0  0  0  0  0  0  0  0
    7.7856   -1.5276    1.0648 H   0  0  0  0  0  0  0  0  0  0  0  0
    7.6618   -1.5455   -1.5033 H   0  0  0  0  0  0  0  0  0  0  0  0
    7.0782   -1.4678   -3.8920 H   0  0  0  0  0  0  0  0  0  0  0  0
    4.7599   -1.0107   -4.5237 H   0  0  0  0  0  0  0  0  0  0  0  0
    3.0625   -0.6403   -2.8340 H   0  0  0  0  0  0  0  0  0  0  0  0
   -0.2171   -1.5225    3.1715 H   0  0  0  0  0  0  0  0  0  0  0  0
   -1.2638   -2.7353    5.0441 H   0  0  0  0  0  0  0  0  0  0  0  0
   -2.8210   -4.5976    4.6924 H   0  0  0  0  0  0  0  0  0  0  0  0
   -3.3297   -5.2251    2.3199 H   0  0  0  0  0  0  0  0  0  0  0  0
   -3.5616   -5.5746   -0.2122 H   0  0  0  0  0  0  0  0  0  0  0  0
   -3.3929   -5.4889   -2.6518 H   0  0  0  0  0  0  0  0  0  0  0  0
   -1.9530   -3.8046   -3.7269 H   0  0  0  0  0  0  0  0  0  0  0  0
   -0.6482   -2.1844   -2.3454 H   0  0  0  0  0  0  0  0  0  0  0  0
   -1.4554   -0.0402   -2.7205 H   0  0  0  0  0  0  0  0  0  0  0  0
   -3.3431    0.0823   -4.2947 H   0  0  0  0  0  0  0  0  0  0  0  0
   -5.5466    0.5520   -3.4939 H   0  0  0  0  0  0  0  0  0  0  0  0
   -5.9341    0.9185   -1.0342 H   0  0  0  0  0  0  0  0  0  0  0  0
   -5.7831    1.2124    1.4959 H   0  0  0  0  0  0  0  0  0  0  0  0
   -5.1802    1.4244    3.9011 H   0  0  0  0  0  0  0  0  0  0  0  0
   -2.7839    1.1066    4.5515 H   0  0  0  0  0  0  0  0  0  0  0  0
   -1.0661    0.6008    2.8359 H   0  0  0  0  0  0  0  0  0  0  0  0
    0.3036    1.4874   -3.0758 H   0  0  0  0  0  0  0  0  0  0  0  0
   -0.2353    2.8193   -5.0178 H   0  0  0  0  0  0  0  0  0  0  0  0
   -1.0748    5.0923   -4.7582 H   0  0  0  0  0  0  0  0  0  0  0  0
   -1.3797    6.0219   -2.4756 H   0  0  0  0  0  0  0  0  0  0  0  0
   -1.5167    6.5787   -0.0242 H   0  0  0  0  0  0  0  0  0  0  0  0
   -1.4402    6.6227    2.4295 H   0  0  0  0  0  0  0  0  0  0  0  0
   -0.6835    4.6855    3.6337 H   0  0  0  0  0  0  0  0  0  0  0  0
    0.0351    2.6394    2.4564 H   0  0  0  0  0  0  0  0  0  0  0  0
  1  2  3  0
  2  3  1  0
  3  4  2  0
  4  5  1  0
  5  6  1  0
  6  7  2  0
  7  8  1  0
  8  9  2  0
  9 10  1  0
 10 11  2  0
 11 12  1  0
 12 13  2  0
 13 14  1  0
 14 15  2  0
 15 16  1  0
 16 17  2  0
  4 18  1  0
 18 19  1  0
 19 20  3  0
 18 21  2  0
 21 22  1  0
 22 23  1  0
 23 24  2  0
 24 25  1  0
 25 26  2  0
 26 27  1  0
 27 28  2  0
 28 29  1  0
 29 30  2  0
 30 31  1  0
 31 32  2  0
 32 33  1  0
 33 34  2  0
 21 35  1  0
 35 36  1  0
 36 37  1  0
 37 38  2  0
 38 39  1  0
 39 40  2  0
 40 41  1  0
 41 42  2  0
 42 43  1  0
 43 44  2  0
 44 45  1  0
 45 46  2  0
 46 47  1  0
 47 48  2  0
 35 49  2  0
 49 50  1  0
 50 51  1  0
 51 52  2  0
 52 53  1  0
 53 54  2  0
 54 55  1  0
 55 56  2  0
 56 57  1  0
 57 58  2  0
 58 59  1  0
 59 60  2  0
 60 61  1  0
 61 62  2  0
 49  3  1  0
 62 50  1  0
 17  5  1  0
 34 22  1  0
 48 36  1  0
 56 51  1  0
 62 57  1  0
 11  6  1  0
 17 12  1  0
 28 23  1  0
 34 29  1  0
 42 37  1  0
 48 43  1  0
  7 63  1  0
  8 64  1  0
  9 65  1  0
 10 66  1  0
 13 67  1  0
 14 68  1  0
 15 69  1  0
 16 70  1  0
 24 71  1  0
 25 72  1  0
 26 73  1  0
 27 74  1  0
 30 75  1  0
 31 76  1  0
 32 77  1  0
 33 78  1  0
 38 79  1  0
 39 80  1  0
 40 81  1  0
 41 82  1  0
 44 83  1  0
 45 84  1  0
 46 85  1  0
 47 86  1  0
 52 87  1  0
 53 88  1  0
 54 89  1  0
 55 90  1  0
 58 91  1  0
 59 92  1  0
 60 93  1  0
 61 94  1  0
M  END
