
     RDKit          3D

102110  0  0  0  0  0  0  0  0999 V2000
    3.1673    3.1585   -0.1520 N   0  0  0  0  0  0  0  0  0  0  0  0
    2.4940    2.2191   -0.1518 C   0  0  0  0  0  0  0  0  0  0  0  0
    1.6258    1.0507   -0.1503 C   0  0  0  0  0  0  0  0  0  0  0  0
    2.2122   -0.1761   -0.3901 C   0  0  0  0  0  0  0  0  0  0  0  0
    3.6384   -0.2323   -0.6334 N   0  0  0  0  0  0  0  0  0  0  0  0
    4.0842   -0.2241   -1.9738 C   0  0  0  0  0  0  0  0  0  0  0  0
    5.2649   -0.7820   -2.3407 C   0  0  0  0  0  0  0  0  0  0  0  0
    5.6875   -0.7446   -3.6672 C   0  0  0  0  0  0  0  0  0  0  0  0
    4.9095   -0.1400   -4.6238 C   0  0  0  0  0  0  0  0  0  0  0  0
    3.7226    0.4174   -4.2416 C   0  0  0  0  0  0  0  0  0  0  0  0
    3.2997    0.3849   -2.9379 C   0  0  0  0  0  0  0  0  0  0  0  0
    4.4976   -0.2842    0.4855 C   0  0  0  0  0  0  0  0  0  0  0  0
    5.7998    0.1552    0.5136 C   0  0  0  0  0  0  0  0  0  0  0  0
    6.5933    0.0599    1.6343 C   0  0  0  0  0  0  0  0  0  0  0  0
    6.0991   -0.4887    2.7867 C   0  0  0  0  0  0  0  0  0  0  0  0
    4.7979   -0.9303    2.7685 C   0  0  0  0  0  0  0  0  0  0  0  0
    3.9952   -0.8440    1.6649 C   0  0  0  0  0  0  0  0  0  0  0  0
    1.4477   -1.3192   -0.4022 C   0  0  0  0  0  0  0  0  0  0  0  0
    2.0691   -2.5825   -0.6558 C   0  0  0  0  0  0  0  0  0  0  0  0
    2.5748   -3.5904   -0.8582 N   0  0  0  0  0  0  0  0  0  0  0  0
    0.0702   -1.2027   -0.1657 C   0  0  0  0  0  0  0  0  0  0  0  0
   -0.6385   -2.4185   -0.1862 N   0  0  0  0  0  0  0  0  0  0  0  0
   -1.1646   -3.0686    0.9353 C   0  0  0  0  0  0  0  0  0  0  0  0
   -0.4352   -3.2924    2.1057 C   0  0  0  0  0  0  0  0  0  0  0  0
   -0.9674   -3.9086    3.2075 C   0  0  0  0  0  0  0  0  0  0  0  0
   -2.2710   -4.3315    3.1799 C   0  0  0  0  0  0  0  0  0  0  0  0
   -3.0161   -4.1230    2.0350 C   0  0  0  0  0  0  0  0  0  0  0  0
   -2.4705   -3.4997    0.9271 C   0  0  0  0  0  0  0  0  0  0  0  0
   -0.7583   -3.0662   -1.4725 C   0  0  0  0  0  0  0  0  0  0  0  0
   -1.2561   -4.3400   -1.6311 C   0  0  0  0  0  0  0  0  0  0  0  0
   -1.3464   -4.9336   -2.8980 C   0  0  0  0  0  0  0  0  0  0  0  0
   -0.9333   -4.2445   -4.0166 C   0  0  0  0  0  0  0  0  0  0  0  0
   -0.4304   -2.9680   -3.8852 C   0  0  0  0  0  0  0  0  0  0  0  0
   -0.3622   -2.4307   -2.6281 C   0  0  0  0  0  0  0  0  0  0  0  0
   -0.5168    0.0037    0.0732 C   0  0  0  0  0  0  0  0  0  0  0  0
   -1.8753    0.1311    0.3483 N   0  0  0  0  0  0  0  0  0  0  0  0
   -2.3073   -0.1758    1.6981 C   0  0  0  0  0  0  0  0  0  0  0  0
   -1.3874   -0.1309    2.7166 C   0  0  0  0  0  0  0  0  0  0  0  0
   -1.7700   -0.4248    4.0019 C   0  0  0  0  0  0  0  0  0  0  0  0
   -3.0653   -0.7675    4.2999 C   0  0  0  0  0  0  0  0  0  0  0  0
   -3.9906   -0.8160    3.2907 C   0  0  0  0  0  0  0  0  0  0  0  0
   -3.5926   -0.5187    2.0045 C   0  0  0  0  0  0  0  0  0  0  0  0
   -2.9095    0.5533   -0.5349 C   0  0  0  0  0  0  0  0  0  0  0  0
   -3.8945    1.3826   -0.0236 C   0  0  0  0  0  0  0  0  0  0  0  0
   -4.9197    1.8069   -0.8273 C   0  0  0  0  0  0  0  0  0  0  0  0
   -5.0373    1.4485   -2.1592 C   0  0  0  0  0  0  0  0  0  0  0  0
   -4.0654    0.6274   -2.6736 C   0  0  0  0  0  0  0  0  0  0  0  0
   -3.0204    0.1957   -1.8519 C   0  0  0  0  0  0  0  0  0  0  0  0
    0.2713    1.1538    0.0808 C   0  0  0  0  0  0  0  0  0  0  0  0
   -0.2978    2.4245    0.3122 N   0  0  0  0  0  0  0  0  0  0  0  0
   -0.6324    3.2320   -0.8038 C   0  0  0  0  0  0  0  0  0  0  0  0
   -0.8836    4.5641   -0.7200 C   0  0  0  0  0  0  0  0  0  0  0  0
   -1.2116    5.3310   -1.8087 C   0  0  0  0  0  0  0  0  0  0  0  0
   -1.2954    4.7516   -3.0464 C   0  0  0  0  0  0  0  0  0  0  0  0
   -1.0457    3.4028   -3.1654 C   0  0  0  0  0  0  0  0  0  0  0  0
   -0.7145    2.6459   -2.0427 C   0  0  0  0  0  0  0  0  0  0  0  0
   -0.5352    2.9505    1.6056 C   0  0  0  0  0  0  0  0  0  0  0  0
   -1.7212    3.5835    1.8638 C   0  0  0  0  0  0  0  0  0  0  0  0
   -2.0230    4.1406    3.0891 C   0  0  0  0  0  0  0  0  0  0  0  0
   -1.0835    4.0506    4.0898 C   0  0  0  0  0  0  0  0  0  0  0  0
    0.1262    3.4228    3.8798 C   0  0  0  0  0  0  0  0  0  0  0  0
    0.3874    2.8726    2.6196 C   0  0  0  0  0  0  0  0  0  0  0  0
    5.9172   -1.2837   -1.6538 H   0  0  0  0  0  0  0  0  0  0  0  0
    6.6279   -1.1930   -3.9351 H   0  0  0  0  0  0  0  0  0  0  0  0
    5.2303   -0.1103   -5.6384 H   0  0  0  0  0  0  0  0  0  0  0  0
    3.1153    0.8954   -5.0212 H   0  0  0  0  0  0  0  0  0  0  0  0
    2.3555    0.8372   -2.6862 H   0  0  0  0  0  0  0  0  0  0  0  0
    6.2292    0.6034   -0.3502 H   0  0  0  0  0  0  0  0  0  0  0  0
    7.6196    0.4236    1.6017 H   0  0  0  0  0  0  0  0  0  0  0  0
    6.7238   -0.5566    3.6475 H   0  0  0  0  0  0  0  0  0  0  0  0
    4.4010   -1.3637    3.6724 H   0  0  0  0  0  0  0  0  0  0  0  0
    2.9704   -1.2130    1.7210 H   0  0  0  0  0  0  0  0  0  0  0  0
    0.5876   -2.9486    2.0968 H   0  0  0  0  0  0  0  0  0  0  0  0
   -0.3954   -4.0755    4.1044 H   0  0  0  0  0  0  0  0  0  0  0  0
   -2.7013   -4.8150    4.0335 H   0  0  0  0  0  0  0  0  0  0  0  0
   -4.0367   -4.4492    2.0003 H   0  0  0  0  0  0  0  0  0  0  0  0
   -3.1250   -3.3670    0.0743 H   0  0  0  0  0  0  0  0  0  0  0  0
   -1.5736   -4.9140   -0.7785 H   0  0  0  0  0  0  0  0  0  0  0  0
   -1.7442   -5.9418   -2.9974 H   0  0  0  0  0  0  0  0  0  0  0  0
   -0.9976   -4.6922   -5.0065 H   0  0  0  0  0  0  0  0  0  0  0  0
   -0.1033   -2.4262   -4.7787 H   0  0  0  0  0  0  0  0  0  0  0  0
    0.0334   -1.4266   -2.5291 H   0  0  0  0  0  0  0  0  0  0  0  0
   -0.3607    0.1252    2.5174 H   0  0  0  0  0  0  0  0  0  0  0  0
   -1.0674   -0.3977    4.8286 H   0  0  0  0  0  0  0  0  0  0  0  0
   -3.3666   -0.9996    5.3179 H   0  0  0  0  0  0  0  0  0  0  0  0
   -5.0410   -1.0883    3.4968 H   0  0  0  0  0  0  0  0  0  0  0  0
   -4.3280   -0.5811    1.2113 H   0  0  0  0  0  0  0  0  0  0  0  0
   -3.9145    1.7386    1.0013 H   0  0  0  0  0  0  0  0  0  0  0  0
   -5.7176    2.4688   -0.4431 H   0  0  0  0  0  0  0  0  0  0  0  0
   -5.8746    1.8170   -2.7487 H   0  0  0  0  0  0  0  0  0  0  0  0
   -4.1355    0.3363   -3.7036 H   0  0  0  0  0  0  0  0  0  0  0  0
   -2.2859   -0.4347   -2.2863 H   0  0  0  0  0  0  0  0  0  0  0  0
   -0.8173    5.0821    0.2220 H   0  0  0  0  0  0  0  0  0  0  0  0
   -1.4071    6.3989   -1.7007 H   0  0  0  0  0  0  0  0  0  0  0  0
   -1.5567    5.3400   -3.9420 H   0  0  0  0  0  0  0  0  0  0  0  0
   -1.1153    2.9585   -4.1499 H   0  0  0  0  0  0  0  0  0  0  0  0
   -0.5325    1.5980   -2.2340 H   0  0  0  0  0  0  0  0  0  0  0  0
   -2.4799    3.6528    1.0684 H   0  0  0  0  0  0  0  0  0  0  0  0
   -2.9755    4.6244    3.2248 H   0  0  0  0  0  0  0  0  0  0  0  0
   -1.3297    4.4974    5.0665 H   0  0  0  0  0  0  0  0  0  0  0  0
    0.8464    3.3668    4.6858 H   0  0  0  0  0  0  0  0  0  0  0  0
    1.3357    2.3920    2.4922 H   0  0  0  0  0  0  0  0  0  0  0  0
  1  2  3  0
  2  3  1  0
  3  4  2  0
  4  5  1  0
  5  6  1  0
  6  7  2  0
  7  8  1  0
  8  9  2  0
  9 10  1  0
 10 11  2  0
  5 12  1  0
 12 13  2  0
 13 14  1  0
 14 15  2  0
 15 16  1  0
 16 17  2  0
  4 18  1  0
 18 19  1  0
 19 20  3  0
 18 21  2  0
 21 22  1  0
 22 23  1  0
 23 24  2  0
 24 25  1  0
 25 26  2  0
 26 27  1  0
 27 28  2  0
 22 29  1  0
 29 30  2  0
 30 31  1  0
 31 32  2  0
 32 33  1  0
 33 34  2  0
 21 35  1  0
 35 36  1  0
 36 37  1  0
 37 38  2  0
 38 39  1  0
 39 40  2  0
 40 41  1  0
 41 42  2  0
 36 43  1  0
 43 44  2  0
 44 45  1  0
 45 46  2  0
 46 47  1  0
 47 48  2  0
 35 49  2  0
 49 50  1  0
 50 51  1  0
 51 52  2  0
 52 53  1  0
 53 54  2  0
 54 55  1  0
 55 56  2  0
 50 57  1  0
 57 58  2  0
 58 59  1  0
 59 60  2  0
 60 61  1  0
 61 62  2  0
 49  3  1  0
 56 51  1  0
 62 57  1  0
 11  6  1  0
 17 12  1  0
 28 23  1  0
 34 29  1  0
 42 37  1  0
 48 43  1  0
  7 63  1  0
  8 64  1  0
  9 65  1  0
 10 66  1  0
 11 67  1  0
 13 68  1  0
 14 69  1  0
 15 70  1  0
 16 71  1  0
 17 72  1  0
 24 73  1  0
 25 74  1  0
 26 75  1  0
 27 76  1  0
 28 77  1  0
 30 78  1  0
 31 79  1  0
 32 80  1  0
 33 81  1  0
 34 82  1  0
 38 83  1  0
 39 84  1  0
 40 85  1  0
 41 86  1  0
 42 87  1  0
 44 88  1  0
 45 89  1  0
 46 90  1  0
 47 91  1  0
 48 92  1  0
 52 93  1  0
 53 94  1  0
 54 95  1  0
 55 96  1  0
 56 97  1  0
 58 98  1  0
 59 99  1  0
 60100  1  0
 61101  1  0
 62102  1  0
M  END
