
     RDKit          3D

126134  0  0  0  0  0  0  0  0999 V2000
    6.3580    2.2197   -4.3427 C   0  0  0  0  0  0  0  0  0  0  0  0
    5.6372    1.8846   -3.0980 C   0  0  0  0  0  0  0  0  0  0  0  0
    6.0994    2.3540   -1.8976 C   0  0  0  0  0  0  0  0  0  0  0  0
    5.4191    2.0371   -0.7477 C   0  0  0  0  0  0  0  0  0  0  0  0
    4.2822    1.2644   -0.7180 C   0  0  0  0  0  0  0  0  0  0  0  0
    3.5748    0.9194    0.4610 N   0  0  0  0  0  0  0  0  0  0  0  0
    4.2554    0.9304    1.7050 C   0  0  0  0  0  0  0  0  0  0  0  0
    5.6043    0.5842    1.8143 C   0  0  0  0  0  0  0  0  0  0  0  0
    6.2677    0.6145    3.0226 C   0  0  0  0  0  0  0  0  0  0  0  0
    5.6221    0.9900    4.1796 C   0  0  0  0  0  0  0  0  0  0  0  0
    6.3853    1.0073    5.4622 C   0  0  0  0  0  0  0  0  0  0  0  0
    4.2964    1.3346    4.0996 C   0  0  0  0  0  0  0  0  0  0  0  0
    3.6432    1.3011    2.8888 C   0  0  0  0  0  0  0  0  0  0  0  0
    2.1878    0.5662    0.3318 C   0  0  0  0  0  0  0  0  0  0  0  0
    1.7915   -0.7366    0.2062 C   0  0  0  0  0  0  0  0  0  0  0  0
    2.8219   -1.7419    0.2135 C   0  0  0  0  0  0  0  0  0  0  0  0
    3.6663   -2.5572    0.2047 N   0  0  0  0  0  0  0  0  0  0  0  0
    0.4433   -1.1137    0.0714 C   0  0  0  0  0  0  0  0  0  0  0  0
    0.1918   -2.5003   -0.0976 N   0  0  0  0  0  0  0  0  0  0  0  0
   -0.3005   -3.3854    0.8702 C   0  0  0  0  0  0  0  0  0  0  0  0
    0.2756   -3.4376    2.1154 C   0  0  0  0  0  0  0  0  0  0  0  0
   -0.2109   -4.3035    3.0971 C   0  0  0  0  0  0  0  0  0  0  0  0
   -1.2835   -5.1167    2.8131 C   0  0  0  0  0  0  0  0  0  0  0  0
   -1.8111   -6.0556    3.8713 C   0  0  0  0  0  0  0  0  0  0  0  0
   -1.8627   -5.0674    1.5693 C   0  0  0  0  0  0  0  0  0  0  0  0
   -1.3593   -4.2040    0.6261 C   0  0  0  0  0  0  0  0  0  0  0  0
    0.5557   -3.0906   -1.3456 C   0  0  0  0  0  0  0  0  0  0  0  0
    0.5214   -4.4322   -1.5562 C   0  0  0  0  0  0  0  0  0  0  0  0
    0.8998   -4.9869   -2.7903 C   0  0  0  0  0  0  0  0  0  0  0  0
    1.3037   -4.1377   -3.7708 C   0  0  0  0  0  0  0  0  0  0  0  0
    1.7264   -4.6486   -5.1215 C   0  0  0  0  0  0  0  0  0  0  0  0
    1.3445   -2.7927   -3.5751 C   0  0  0  0  0  0  0  0  0  0  0  0
    0.9704   -2.2840   -2.3654 C   0  0  0  0  0  0  0  0  0  0  0  0
   -0.5077   -0.1285    0.0694 C   0  0  0  0  0  0  0  0  0  0  0  0
   -1.8719   -0.4608   -0.0231 N   0  0  0  0  0  0  0  0  0  0  0  0
   -2.7409   -0.2879   -1.1245 C   0  0  0  0  0  0  0  0  0  0  0  0
   -2.3257   -0.4529   -2.4203 C   0  0  0  0  0  0  0  0  0  0  0  0
   -3.1808   -0.2645   -3.5124 C   0  0  0  0  0  0  0  0  0  0  0  0
   -4.4939    0.1005   -3.3235 C   0  0  0  0  0  0  0  0  0  0  0  0
   -5.4296    0.3107   -4.4637 C   0  0  0  0  0  0  0  0  0  0  0  0
   -4.9375    0.2735   -2.0441 C   0  0  0  0  0  0  0  0  0  0  0  0
   -4.0814    0.0832   -0.9978 C   0  0  0  0  0  0  0  0  0  0  0  0
   -2.4797   -1.0769    1.1235 C   0  0  0  0  0  0  0  0  0  0  0  0
   -3.6345   -1.8067    1.0995 C   0  0  0  0  0  0  0  0  0  0  0  0
   -4.1687   -2.3377    2.2781 C   0  0  0  0  0  0  0  0  0  0  0  0
   -3.5693   -2.1576    3.5008 C   0  0  0  0  0  0  0  0  0  0  0  0
   -4.1843   -2.7436    4.7256 C   0  0  0  0  0  0  0  0  0  0  0  0
   -2.3988   -1.4233    3.5383 C   0  0  0  0  0  0  0  0  0  0  0  0
   -1.8899   -0.9072    2.3551 C   0  0  0  0  0  0  0  0  0  0  0  0
   -0.1559    1.2008    0.1896 C   0  0  0  0  0  0  0  0  0  0  0  0
   -1.0502    2.2775    0.1266 N   0  0  0  0  0  0  0  0  0  0  0  0
   -1.5106    3.1191    1.1629 C   0  0  0  0  0  0  0  0  0  0  0  0
   -1.9484    4.4201    0.9081 C   0  0  0  0  0  0  0  0  0  0  0  0
   -2.4119    5.2857    1.8669 C   0  0  0  0  0  0  0  0  0  0  0  0
   -2.4587    4.8770    3.1666 C   0  0  0  0  0  0  0  0  0  0  0  0
   -2.9610    5.8065    4.2225 C   0  0  0  0  0  0  0  0  0  0  0  0
   -2.0434    3.6131    3.4929 C   0  0  0  0  0  0  0  0  0  0  0  0
   -1.5790    2.7663    2.4803 C   0  0  0  0  0  0  0  0  0  0  0  0
   -1.5304    2.6055   -1.1803 C   0  0  0  0  0  0  0  0  0  0  0  0
   -0.6466    2.4350   -2.2274 C   0  0  0  0  0  0  0  0  0  0  0  0
   -0.9815    2.7056   -3.5438 C   0  0  0  0  0  0  0  0  0  0  0  0
   -2.2526    3.1657   -3.8259 C   0  0  0  0  0  0  0  0  0  0  0  0
   -2.6731    3.4741   -5.2273 C   0  0  0  0  0  0  0  0  0  0  0  0
   -3.1301    3.3345   -2.7847 C   0  0  0  0  0  0  0  0  0  0  0  0
   -2.7905    3.0616   -1.4641 C   0  0  0  0  0  0  0  0  0  0  0  0
    1.2186    1.5336    0.3233 C   0  0  0  0  0  0  0  0  0  0  0  0
    1.5769    2.9035    0.4501 C   0  0  0  0  0  0  0  0  0  0  0  0
    1.8842    4.0342    0.5727 N   0  0  0  0  0  0  0  0  0  0  0  0
    3.8241    0.7931   -1.9553 C   0  0  0  0  0  0  0  0  0  0  0  0
    4.5086    1.1103   -3.1264 C   0  0  0  0  0  0  0  0  0  0  0  0
    7.4490    2.3027   -4.1880 H   0  0  0  0  0  0  0  0  0  0  0  0
    5.9322    3.1740   -4.7383 H   0  0  0  0  0  0  0  0  0  0  0  0
    6.2085    1.4623   -5.1345 H   0  0  0  0  0  0  0  0  0  0  0  0
    6.9869    2.9734   -1.8012 H   0  0  0  0  0  0  0  0  0  0  0  0
    5.7986    2.4328    0.1896 H   0  0  0  0  0  0  0  0  0  0  0  0
    6.1829    0.2654    0.9595 H   0  0  0  0  0  0  0  0  0  0  0  0
    7.3138    0.3449    3.0987 H   0  0  0  0  0  0  0  0  0  0  0  0
    6.6595   -0.0277    5.7364 H   0  0  0  0  0  0  0  0  0  0  0  0
    5.7840    1.4746    6.2405 H   0  0  0  0  0  0  0  0  0  0  0  0
    7.3435    1.5440    5.2629 H   0  0  0  0  0  0  0  0  0  0  0  0
    3.7990    1.6278    5.0134 H   0  0  0  0  0  0  0  0  0  0  0  0
    2.5901    1.5868    2.8938 H   0  0  0  0  0  0  0  0  0  0  0  0
    1.1217   -2.8344    2.4232 H   0  0  0  0  0  0  0  0  0  0  0  0
    0.2190   -4.3701    4.0850 H   0  0  0  0  0  0  0  0  0  0  0  0
   -1.6559   -5.6614    4.8888 H   0  0  0  0  0  0  0  0  0  0  0  0
   -2.9188   -6.1116    3.7155 H   0  0  0  0  0  0  0  0  0  0  0  0
   -1.3439   -7.0510    3.7306 H   0  0  0  0  0  0  0  0  0  0  0  0
   -2.6928   -5.7058    1.3683 H   0  0  0  0  0  0  0  0  0  0  0  0
   -1.8410   -4.1799   -0.3382 H   0  0  0  0  0  0  0  0  0  0  0  0
    0.2322   -5.1663   -0.8221 H   0  0  0  0  0  0  0  0  0  0  0  0
    0.8663   -6.0703   -2.9480 H   0  0  0  0  0  0  0  0  0  0  0  0
    1.0128   -5.4028   -5.4955 H   0  0  0  0  0  0  0  0  0  0  0  0
    2.7541   -5.0623   -4.9520 H   0  0  0  0  0  0  0  0  0  0  0  0
    1.7676   -3.8288   -5.8625 H   0  0  0  0  0  0  0  0  0  0  0  0
    1.6735   -2.1314   -4.3807 H   0  0  0  0  0  0  0  0  0  0  0  0
    1.0117   -1.2119   -2.2307 H   0  0  0  0  0  0  0  0  0  0  0  0
   -1.3000   -0.7289   -2.6042 H   0  0  0  0  0  0  0  0  0  0  0  0
   -2.8038   -0.4067   -4.5159 H   0  0  0  0  0  0  0  0  0  0  0  0
   -6.3211   -0.3339   -4.2474 H   0  0  0  0  0  0  0  0  0  0  0  0
   -5.6869    1.3907   -4.4712 H   0  0  0  0  0  0  0  0  0  0  0  0
   -4.9463   -0.0187   -5.3923 H   0  0  0  0  0  0  0  0  0  0  0  0
   -5.9529    0.5582   -1.8382 H   0  0  0  0  0  0  0  0  0  0  0  0
   -4.4350    0.2507    0.0261 H   0  0  0  0  0  0  0  0  0  0  0  0
   -4.1127   -1.9956    0.1505 H   0  0  0  0  0  0  0  0  0  0  0  0
   -5.0856   -2.9080    2.2110 H   0  0  0  0  0  0  0  0  0  0  0  0
   -3.5954   -2.5031    5.6128 H   0  0  0  0  0  0  0  0  0  0  0  0
   -4.3202   -3.8205    4.5573 H   0  0  0  0  0  0  0  0  0  0  0  0
   -5.2093   -2.3297    4.8808 H   0  0  0  0  0  0  0  0  0  0  0  0
   -1.9233   -1.2805    4.5024 H   0  0  0  0  0  0  0  0  0  0  0  0
   -0.9561   -0.3741    2.4648 H   0  0  0  0  0  0  0  0  0  0  0  0
   -1.8870    4.7713   -0.1178 H   0  0  0  0  0  0  0  0  0  0  0  0
   -2.7436    6.3037    1.5839 H   0  0  0  0  0  0  0  0  0  0  0  0
   -2.5661    5.4384    5.1885 H   0  0  0  0  0  0  0  0  0  0  0  0
   -2.5492    6.8173    4.0143 H   0  0  0  0  0  0  0  0  0  0  0  0
   -4.0533    5.8779    4.2514 H   0  0  0  0  0  0  0  0  0  0  0  0
   -2.0888    3.3166    4.5153 H   0  0  0  0  0  0  0  0  0  0  0  0
   -1.2609    1.8107    2.8277 H   0  0  0  0  0  0  0  0  0  0  0  0
    0.3750    2.0738   -2.0748 H   0  0  0  0  0  0  0  0  0  0  0  0
   -0.3035    2.5781   -4.3759 H   0  0  0  0  0  0  0  0  0  0  0  0
   -3.2798    4.4092   -5.2756 H   0  0  0  0  0  0  0  0  0  0  0  0
   -1.7767    3.6553   -5.8537 H   0  0  0  0  0  0  0  0  0  0  0  0
   -3.2218    2.6188   -5.6842 H   0  0  0  0  0  0  0  0  0  0  0  0
   -4.1265    3.6956   -3.0102 H   0  0  0  0  0  0  0  0  0  0  0  0
   -3.4921    3.1843   -0.6556 H   0  0  0  0  0  0  0  0  0  0  0  0
    2.9368    0.1899   -1.9380 H   0  0  0  0  0  0  0  0  0  0  0  0
    4.1205    0.7284   -4.0510 H   0  0  0  0  0  0  0  0  0  0  0  0
  1  2  1  0
  2  3  2  0
  3  4  1  0
  4  5  2  0
  5  6  1  0
  6  7  1  0
  7  8  2  0
  8  9  1  0
  9 10  2  0
 10 11  1  0
 10 12  1  0
 12 13  2  0
  6 14  1  0
 14 15  2  0
 15 16  1  0
 16 17  3  0
 15 18  1  0
 18 19  1  0
 19 20  1  0
 20 21  2  0
 21 22  1  0
 22 23  2  0
 23 24  1  0
 23 25  1  0
 25 26  2  0
 19 27  1  0
 27 28  2  0
 28 29  1  0
 29 30  2  0
 30 31  1  0
 30 32  1  0
 32 33  2  0
 18 34  2  0
 34 35  1  0
 35 36  1  0
 36 37  2  0
 37 38  1  0
 38 39  2  0
 39 40  1  0
 39 41  1  0
 41 42  2  0
 35 43  1  0
 43 44  2  0
 44 45  1  0
 45 46  2  0
 46 47  1  0
 46 48  1  0
 48 49  2  0
 34 50  1  0
 50 51  1  0
 51 52  1  0
 52 53  2  0
 53 54  1  0
 54 55  2  0
 55 56  1  0
 55 57  1  0
 57 58  2  0
 51 59  1  0
 59 60  2  0
 60 61  1  0
 61 62  2  0
 62 63  1  0
 62 64  1  0
 64 65  2  0
 50 66  2  0
 66 67  1  0
 67 68  3  0
  5 69  1  0
 69 70  2  0
 70  2  1  0
 13  7  1  0
 66 14  1  0
 26 20  1  0
 33 27  1  0
 42 36  1  0
 49 43  1  0
 58 52  1  0
 65 59  1  0
  1 71  1  0
  1 72  1  0
  1 73  1  0
  3 74  1  0
  4 75  1  0
  8 76  1  0
  9 77  1  0
 11 78  1  0
 11 79  1  0
 11 80  1  0
 12 81  1  0
 13 82  1  0
 21 83  1  0
 22 84  1  0
 24 85  1  0
 24 86  1  0
 24 87  1  0
 25 88  1  0
 26 89  1  0
 28 90  1  0
 29 91  1  0
 31 92  1  0
 31 93  1  0
 31 94  1  0
 32 95  1  0
 33 96  1  0
 37 97  1  0
 38 98  1  0
 40 99  1  0
 40100  1  0
 40101  1  0
 41102  1  0
 42103  1  0
 44104  1  0
 45105  1  0
 47106  1  0
 47107  1  0
 47108  1  0
 48109  1  0
 49110  1  0
 53111  1  0
 54112  1  0
 56113  1  0
 56114  1  0
 56115  1  0
 57116  1  0
 58117  1  0
 60118  1  0
 61119  1  0
 63120  1  0
 63121  1  0
 63122  1  0
 64123  1  0
 65124  1  0
 69125  1  0
 70126  1  0
M  END
