
     RDKit          3D

102110  0  0  0  0  0  0  0  0999 V2000
    2.5660    3.6481   -0.2433 N   0  0  0  0  0  0  0  0  0  0  0  0
    2.0768    2.5931   -0.1672 C   0  0  0  0  0  0  0  0  0  0  0  0
    1.4888    1.2649   -0.0639 C   0  0  0  0  0  0  0  0  0  0  0  0
    2.2156    0.1387    0.0124 C   0  0  0  0  0  0  0  0  0  0  0  0
    3.6447    0.2157   -0.0194 N   0  0  0  0  0  0  0  0  0  0  0  0
    4.3766    0.4492    1.1561 C   0  0  0  0  0  0  0  0  0  0  0  0
    5.6073    1.0485    1.1315 C   0  0  0  0  0  0  0  0  0  0  0  0
    6.3237    1.2558    2.3157 C   0  0  0  0  0  0  0  0  0  0  0  0
    5.7924    0.8557    3.5283 C   0  0  0  0  0  0  0  0  0  0  0  0
    6.6612    1.0996    5.0405 Cl  0  0  0  0  0  0  0  0  0  0  0  0
    4.5631    0.2573    3.5545 C   0  0  0  0  0  0  0  0  0  0  0  0
    3.8630    0.0583    2.3667 C   0  0  0  0  0  0  0  0  0  0  0  0
    4.3223    0.0483   -1.2500 C   0  0  0  0  0  0  0  0  0  0  0  0
    3.6635    0.4349   -2.4049 C   0  0  0  0  0  0  0  0  0  0  0  0
    4.3139    0.2537   -3.6107 C   0  0  0  0  0  0  0  0  0  0  0  0
    5.5833   -0.2977   -3.6485 C   0  0  0  0  0  0  0  0  0  0  0  0
    6.3418   -0.4957   -5.2155 Cl  0  0  0  0  0  0  0  0  0  0  0  0
    6.2236   -0.6794   -2.4692 C   0  0  0  0  0  0  0  0  0  0  0  0
    5.5774   -0.5006   -1.2612 C   0  0  0  0  0  0  0  0  0  0  0  0
    1.6086   -1.0830    0.1129 C   0  0  0  0  0  0  0  0  0  0  0  0
    2.4299   -2.2642    0.1811 C   0  0  0  0  0  0  0  0  0  0  0  0
    3.1016   -3.2089    0.2241 N   0  0  0  0  0  0  0  0  0  0  0  0
    0.2055   -1.1478    0.1373 C   0  0  0  0  0  0  0  0  0  0  0  0
   -0.3107   -2.4800    0.1988 N   0  0  0  0  0  0  0  0  0  0  0  0
   -0.2511   -3.2568   -1.0077 C   0  0  0  0  0  0  0  0  0  0  0  0
   -0.4901   -4.5797   -1.0186 C   0  0  0  0  0  0  0  0  0  0  0  0
   -0.4099   -5.2789   -2.1983 C   0  0  0  0  0  0  0  0  0  0  0  0
   -0.0882   -4.6554   -3.3775 C   0  0  0  0  0  0  0  0  0  0  0  0
   -0.0067   -5.6086   -4.8412 Cl  0  0  0  0  0  0  0  0  0  0  0  0
    0.1619   -3.3037   -3.3933 C   0  0  0  0  0  0  0  0  0  0  0  0
    0.0710   -2.6309   -2.1814 C   0  0  0  0  0  0  0  0  0  0  0  0
   -0.8166   -3.1260    1.3200 C   0  0  0  0  0  0  0  0  0  0  0  0
   -0.1222   -3.1002    2.5082 C   0  0  0  0  0  0  0  0  0  0  0  0
   -0.5704   -3.7023    3.6506 C   0  0  0  0  0  0  0  0  0  0  0  0
   -1.7759   -4.3608    3.5900 C   0  0  0  0  0  0  0  0  0  0  0  0
   -2.3593   -5.1405    5.0523 Cl  0  0  0  0  0  0  0  0  0  0  0  0
   -2.5204   -4.4167    2.4106 C   0  0  0  0  0  0  0  0  0  0  0  0
   -2.0146   -3.7870    1.2850 C   0  0  0  0  0  0  0  0  0  0  0  0
   -0.5809   -0.0376    0.0666 C   0  0  0  0  0  0  0  0  0  0  0  0
   -1.9756   -0.1184    0.1266 N   0  0  0  0  0  0  0  0  0  0  0  0
   -2.5952   -0.4850    1.3856 C   0  0  0  0  0  0  0  0  0  0  0  0
   -3.8718   -0.9958    1.4654 C   0  0  0  0  0  0  0  0  0  0  0  0
   -4.4563   -1.3143    2.6775 C   0  0  0  0  0  0  0  0  0  0  0  0
   -3.7592   -1.1236    3.8489 C   0  0  0  0  0  0  0  0  0  0  0  0
   -4.5061   -1.5275    5.3770 Cl  0  0  0  0  0  0  0  0  0  0  0  0
   -2.4793   -0.6165    3.8191 C   0  0  0  0  0  0  0  0  0  0  0  0
   -1.9285   -0.3090    2.5672 C   0  0  0  0  0  0  0  0  0  0  0  0
   -2.9189    0.1276   -0.9016 C   0  0  0  0  0  0  0  0  0  0  0  0
   -2.7994   -0.2320   -2.2111 C   0  0  0  0  0  0  0  0  0  0  0  0
   -3.7904    0.0812   -3.1516 C   0  0  0  0  0  0  0  0  0  0  0  0
   -4.9177    0.7681   -2.7609 C   0  0  0  0  0  0  0  0  0  0  0  0
   -6.1816    1.1770   -3.9191 Cl  0  0  0  0  0  0  0  0  0  0  0  0
   -5.0716    1.1473   -1.4487 C   0  0  0  0  0  0  0  0  0  0  0  0
   -4.0808    0.8246   -0.5520 C   0  0  0  0  0  0  0  0  0  0  0  0
    0.0696    1.1923   -0.0395 C   0  0  0  0  0  0  0  0  0  0  0  0
   -0.6329    2.4016   -0.2271 N   0  0  0  0  0  0  0  0  0  0  0  0
   -1.2098    2.6898   -1.4953 C   0  0  0  0  0  0  0  0  0  0  0  0
   -0.6078    2.2672   -2.6715 C   0  0  0  0  0  0  0  0  0  0  0  0
   -1.1972    2.5601   -3.8791 C   0  0  0  0  0  0  0  0  0  0  0  0
   -2.3770    3.2671   -3.9462 C   0  0  0  0  0  0  0  0  0  0  0  0
   -3.1582    3.6604   -5.4678 Cl  0  0  0  0  0  0  0  0  0  0  0  0
   -2.9930    3.6966   -2.7900 C   0  0  0  0  0  0  0  0  0  0  0  0
   -2.3816    3.3892   -1.5944 C   0  0  0  0  0  0  0  0  0  0  0  0
   -0.7167    3.4017    0.7520 C   0  0  0  0  0  0  0  0  0  0  0  0
   -0.9384    4.7226    0.4163 C   0  0  0  0  0  0  0  0  0  0  0  0
   -1.0389    5.7386    1.3459 C   0  0  0  0  0  0  0  0  0  0  0  0
   -0.9121    5.4342    2.6886 C   0  0  0  0  0  0  0  0  0  0  0  0
   -1.0471    6.7509    3.8325 Cl  0  0  0  0  0  0  0  0  0  0  0  0
   -0.6890    4.1313    3.0732 C   0  0  0  0  0  0  0  0  0  0  0  0
   -0.5944    3.1341    2.0920 C   0  0  0  0  0  0  0  0  0  0  0  0
    6.1040    1.4079    0.2437 H   0  0  0  0  0  0  0  0  0  0  0  0
    7.3001    1.7268    2.3104 H   0  0  0  0  0  0  0  0  0  0  0  0
    4.1435   -0.0585    4.5221 H   0  0  0  0  0  0  0  0  0  0  0  0
    2.8969   -0.4226    2.4668 H   0  0  0  0  0  0  0  0  0  0  0  0
    2.6762    0.8631   -2.3971 H   0  0  0  0  0  0  0  0  0  0  0  0
    3.8046    0.5544   -4.5151 H   0  0  0  0  0  0  0  0  0  0  0  0
    7.2017   -1.1038   -2.5437 H   0  0  0  0  0  0  0  0  0  0  0  0
    6.1058   -0.8242   -0.3791 H   0  0  0  0  0  0  0  0  0  0  0  0
   -0.7259   -5.1369   -0.1435 H   0  0  0  0  0  0  0  0  0  0  0  0
   -0.6049   -6.3333   -2.1906 H   0  0  0  0  0  0  0  0  0  0  0  0
    0.4219   -2.7799   -4.3221 H   0  0  0  0  0  0  0  0  0  0  0  0
    0.2815   -1.5584   -2.2410 H   0  0  0  0  0  0  0  0  0  0  0  0
    0.8187   -2.5794    2.5374 H   0  0  0  0  0  0  0  0  0  0  0  0
    0.0132   -3.6497    4.5509 H   0  0  0  0  0  0  0  0  0  0  0  0
   -3.4648   -4.9468    2.4025 H   0  0  0  0  0  0  0  0  0  0  0  0
   -2.6008   -3.8256    0.3779 H   0  0  0  0  0  0  0  0  0  0  0  0
   -4.4566   -1.1906    0.5806 H   0  0  0  0  0  0  0  0  0  0  0  0
   -5.4757   -1.7219    2.7268 H   0  0  0  0  0  0  0  0  0  0  0  0
   -1.9375   -0.4706    4.7429 H   0  0  0  0  0  0  0  0  0  0  0  0
   -0.9198    0.0441    2.6081 H   0  0  0  0  0  0  0  0  0  0  0  0
   -1.9382   -0.7547   -2.5388 H   0  0  0  0  0  0  0  0  0  0  0  0
   -3.7102   -0.1950   -4.1796 H   0  0  0  0  0  0  0  0  0  0  0  0
   -5.9355    1.6841   -1.1001 H   0  0  0  0  0  0  0  0  0  0  0  0
   -4.2126    1.1564    0.4927 H   0  0  0  0  0  0  0  0  0  0  0  0
    0.3110    1.7191   -2.5883 H   0  0  0  0  0  0  0  0  0  0  0  0
   -0.7416    2.2380   -4.8045 H   0  0  0  0  0  0  0  0  0  0  0  0
   -3.9278    4.2593   -2.8081 H   0  0  0  0  0  0  0  0  0  0  0  0
   -2.9169    3.7336   -0.6915 H   0  0  0  0  0  0  0  0  0  0  0  0
   -1.0138    5.0270   -0.6162 H   0  0  0  0  0  0  0  0  0  0  0  0
   -1.2161    6.7684    1.0236 H   0  0  0  0  0  0  0  0  0  0  0  0
   -0.5901    3.9015    4.1251 H   0  0  0  0  0  0  0  0  0  0  0  0
   -0.4000    2.1474    2.4644 H   0  0  0  0  0  0  0  0  0  0  0  0
  1  2  3  0
  2  3  1  0
  3  4  2  0
  4  5  1  0
  5  6  1  0
  6  7  2  0
  7  8  1  0
  8  9  2  0
  9 10  1  0
  9 11  1  0
 11 12  2  0
  5 13  1  0
 13 14  2  0
 14 15  1  0
 15 16  2  0
 16 17  1  0
 16 18  1  0
 18 19  2  0
  4 20  1  0
 20 21  1  0
 21 22  3  0
 20 23  2  0
 23 24  1  0
 24 25  1  0
 25 26  2  0
 26 27  1  0
 27 28  2  0
 28 29  1  0
 28 30  1  0
 30 31  2  0
 24 32  1  0
 32 33  2  0
 33 34  1  0
 34 35  2  0
 35 36  1  0
 35 37  1  0
 37 38  2  0
 23 39  1  0
 39 40  1  0
 40 41  1  0
 41 42  2  0
 42 43  1  0
 43 44  2  0
 44 45  1  0
 44 46  1  0
 46 47  2  0
 40 48  1  0
 48 49  2  0
 49 50  1  0
 50 51  2  0
 51 52  1  0
 51 53  1  0
 53 54  2  0
 39 55  2  0
 55 56  1  0
 56 57  1  0
 57 58  2  0
 58 59  1  0
 59 60  2  0
 60 61  1  0
 60 62  1  0
 62 63  2  0
 56 64  1  0
 64 65  2  0
 65 66  1  0
 66 67  2  0
 67 68  1  0
 67 69  1  0
 69 70  2  0
 55  3  1  0
 63 57  1  0
 70 64  1  0
 12  6  1  0
 19 13  1  0
 31 25  1  0
 38 32  1  0
 47 41  1  0
 54 48  1  0
  7 71  1  0
  8 72  1  0
 11 73  1  0
 12 74  1  0
 14 75  1  0
 15 76  1  0
 18 77  1  0
 19 78  1  0
 26 79  1  0
 27 80  1  0
 30 81  1  0
 31 82  1  0
 33 83  1  0
 34 84  1  0
 37 85  1  0
 38 86  1  0
 42 87  1  0
 43 88  1  0
 46 89  1  0
 47 90  1  0
 49 91  1  0
 50 92  1  0
 53 93  1  0
 54 94  1  0
 58 95  1  0
 59 96  1  0
 62 97  1  0
 63 98  1  0
 65 99  1  0
 66100  1  0
 69101  1  0
 70102  1  0
M  END
