
     RDKit          3D

102110  0  0  0  0  0  0  0  0999 V2000
    4.0139   -1.8254   -0.6246 N   0  0  0  0  0  0  0  0  0  0  0  0
    3.0772   -1.1562   -0.5084 C   0  0  0  0  0  0  0  0  0  0  0  0
    1.9162   -0.3110   -0.3537 C   0  0  0  0  0  0  0  0  0  0  0  0
    1.9937    1.0398   -0.5098 C   0  0  0  0  0  0  0  0  0  0  0  0
    3.2707    1.5921   -0.8384 N   0  0  0  0  0  0  0  0  0  0  0  0
    4.1089    2.1547    0.1504 C   0  0  0  0  0  0  0  0  0  0  0  0
    4.9729    3.1542   -0.1837 C   0  0  0  0  0  0  0  0  0  0  0  0
    5.7942    3.6901    0.7719 C   0  0  0  0  0  0  0  0  0  0  0  0
    5.7491    3.2212    2.0721 C   0  0  0  0  0  0  0  0  0  0  0  0
    6.8947    3.9761    3.3844 Br  0  0  0  0  0  0  0  0  0  0  0  0
    4.8556    2.1979    2.3877 C   0  0  0  0  0  0  0  0  0  0  0  0
    4.0353    1.6622    1.4337 C   0  0  0  0  0  0  0  0  0  0  0  0
    3.6899    1.5517   -2.1781 C   0  0  0  0  0  0  0  0  0  0  0  0
    5.0177    1.4852   -2.5325 C   0  0  0  0  0  0  0  0  0  0  0  0
    5.4201    1.4505   -3.8623 C   0  0  0  0  0  0  0  0  0  0  0  0
    4.4826    1.4820   -4.8740 C   0  0  0  0  0  0  0  0  0  0  0  0
    5.0593    1.4293   -6.6981 Br  0  0  0  0  0  0  0  0  0  0  0  0
    3.1476    1.5484   -4.5408 C   0  0  0  0  0  0  0  0  0  0  0  0
    2.7484    1.5833   -3.2024 C   0  0  0  0  0  0  0  0  0  0  0  0
    0.8533    1.7925   -0.3478 C   0  0  0  0  0  0  0  0  0  0  0  0
    0.9194    3.2154   -0.5051 C   0  0  0  0  0  0  0  0  0  0  0  0
    0.9828    4.3669   -0.6488 N   0  0  0  0  0  0  0  0  0  0  0  0
   -0.3654    1.1767   -0.0286 C   0  0  0  0  0  0  0  0  0  0  0  0
   -1.4997    1.9949    0.1152 N   0  0  0  0  0  0  0  0  0  0  0  0
   -2.1201    2.4273   -1.1160 C   0  0  0  0  0  0  0  0  0  0  0  0
   -3.0839    3.4102   -1.1316 C   0  0  0  0  0  0  0  0  0  0  0  0
   -3.6556    3.8037   -2.3479 C   0  0  0  0  0  0  0  0  0  0  0  0
   -3.2901    3.2428   -3.5466 C   0  0  0  0  0  0  0  0  0  0  0  0
   -4.0857    3.7964   -5.2034 Br  0  0  0  0  0  0  0  0  0  0  0  0
   -2.3249    2.2604   -3.5245 C   0  0  0  0  0  0  0  0  0  0  0  0
   -1.7727    1.8835   -2.3267 C   0  0  0  0  0  0  0  0  0  0  0  0
   -2.0703    2.4548    1.3160 C   0  0  0  0  0  0  0  0  0  0  0  0
   -3.4177    2.3009    1.5197 C   0  0  0  0  0  0  0  0  0  0  0  0
   -4.0555    2.7411    2.6688 C   0  0  0  0  0  0  0  0  0  0  0  0
   -3.3014    3.3622    3.6532 C   0  0  0  0  0  0  0  0  0  0  0  0
   -4.1463    3.9800    5.2467 Br  0  0  0  0  0  0  0  0  0  0  0  0
   -1.9483    3.5241    3.4638 C   0  0  0  0  0  0  0  0  0  0  0  0
   -1.3446    3.0752    2.3097 C   0  0  0  0  0  0  0  0  0  0  0  0
   -0.4531   -0.1796    0.1302 C   0  0  0  0  0  0  0  0  0  0  0  0
   -1.6708   -0.7682    0.4549 N   0  0  0  0  0  0  0  0  0  0  0  0
   -1.8829   -1.1623    1.8299 C   0  0  0  0  0  0  0  0  0  0  0  0
   -1.3367   -0.5176    2.8976 C   0  0  0  0  0  0  0  0  0  0  0  0
   -1.5666   -0.9686    4.1699 C   0  0  0  0  0  0  0  0  0  0  0  0
   -2.3567   -2.0855    4.3763 C   0  0  0  0  0  0  0  0  0  0  0  0
   -2.6887   -2.7301    6.1258 Br  0  0  0  0  0  0  0  0  0  0  0  0
   -2.9138   -2.7473    3.3109 C   0  0  0  0  0  0  0  0  0  0  0  0
   -2.6756   -2.2843    2.0373 C   0  0  0  0  0  0  0  0  0  0  0  0
   -2.7483   -1.0216   -0.4291 C   0  0  0  0  0  0  0  0  0  0  0  0
   -2.5655   -1.2943   -1.7676 C   0  0  0  0  0  0  0  0  0  0  0  0
   -3.6561   -1.5135   -2.5847 C   0  0  0  0  0  0  0  0  0  0  0  0
   -4.9397   -1.4668   -2.0958 C   0  0  0  0  0  0  0  0  0  0  0  0
   -6.4396   -1.7659   -3.2055 Br  0  0  0  0  0  0  0  0  0  0  0  0
   -5.1629   -1.1945   -0.7548 C   0  0  0  0  0  0  0  0  0  0  0  0
   -4.0512   -0.9803    0.0343 C   0  0  0  0  0  0  0  0  0  0  0  0
    0.6971   -0.9377   -0.0326 C   0  0  0  0  0  0  0  0  0  0  0  0
    0.6397   -2.3486    0.1214 N   0  0  0  0  0  0  0  0  0  0  0  0
    1.1581   -2.8843    1.3108 C   0  0  0  0  0  0  0  0  0  0  0  0
    1.3180   -4.2310    1.4653 C   0  0  0  0  0  0  0  0  0  0  0  0
    1.8257   -4.8199    2.6076 C   0  0  0  0  0  0  0  0  0  0  0  0
    2.1995   -4.0328    3.6626 C   0  0  0  0  0  0  0  0  0  0  0  0
    2.9087   -4.8202    5.2657 Br  0  0  0  0  0  0  0  0  0  0  0  0
    2.0546   -2.6666    3.5462 C   0  0  0  0  0  0  0  0  0  0  0  0
    1.5453   -2.0955    2.3974 C   0  0  0  0  0  0  0  0  0  0  0  0
    0.1280   -3.2405   -0.8297 C   0  0  0  0  0  0  0  0  0  0  0  0
   -0.8191   -4.1780   -0.5010 C   0  0  0  0  0  0  0  0  0  0  0  0
   -1.3154   -5.0786   -1.4317 C   0  0  0  0  0  0  0  0  0  0  0  0
   -0.8393   -5.0265   -2.7266 C   0  0  0  0  0  0  0  0  0  0  0  0
   -1.5047   -6.2593   -4.0308 Br  0  0  0  0  0  0  0  0  0  0  0  0
    0.1185   -4.0763   -3.0543 C   0  0  0  0  0  0  0  0  0  0  0  0
    0.5889   -3.2024   -2.1174 C   0  0  0  0  0  0  0  0  0  0  0  0
    5.0095    3.5345   -1.1803 H   0  0  0  0  0  0  0  0  0  0  0  0
    6.4827    4.4809    0.5231 H   0  0  0  0  0  0  0  0  0  0  0  0
    4.8513    1.8613    3.4081 H   0  0  0  0  0  0  0  0  0  0  0  0
    3.3539    0.8742    1.6953 H   0  0  0  0  0  0  0  0  0  0  0  0
    5.8152    1.4431   -1.8112 H   0  0  0  0  0  0  0  0  0  0  0  0
    6.4805    1.3974   -4.1335 H   0  0  0  0  0  0  0  0  0  0  0  0
    2.4299    1.5716   -5.3520 H   0  0  0  0  0  0  0  0  0  0  0  0
    1.6879    1.6353   -3.0188 H   0  0  0  0  0  0  0  0  0  0  0  0
   -3.4149    3.9128   -0.2147 H   0  0  0  0  0  0  0  0  0  0  0  0
   -4.4160    4.5774   -2.3675 H   0  0  0  0  0  0  0  0  0  0  0  0
   -2.0334    1.8158   -4.4617 H   0  0  0  0  0  0  0  0  0  0  0  0
   -1.0008    1.0971   -2.3139 H   0  0  0  0  0  0  0  0  0  0  0  0
   -3.9952    1.8149    0.7483 H   0  0  0  0  0  0  0  0  0  0  0  0
   -5.1207    2.6142    2.8172 H   0  0  0  0  0  0  0  0  0  0  0  0
   -1.3385    4.0012    4.2095 H   0  0  0  0  0  0  0  0  0  0  0  0
   -0.2600    3.2149    2.1781 H   0  0  0  0  0  0  0  0  0  0  0  0
   -0.7137    0.3387    2.6856 H   0  0  0  0  0  0  0  0  0  0  0  0
   -1.1141   -0.4264    4.9912 H   0  0  0  0  0  0  0  0  0  0  0  0
   -3.5295   -3.6170    3.4661 H   0  0  0  0  0  0  0  0  0  0  0  0
   -3.1254   -2.8456    1.2247 H   0  0  0  0  0  0  0  0  0  0  0  0
   -1.5555   -1.3172   -2.1356 H   0  0  0  0  0  0  0  0  0  0  0  0
   -3.4505   -1.7230   -3.6238 H   0  0  0  0  0  0  0  0  0  0  0  0
   -6.1648   -1.1515   -0.3451 H   0  0  0  0  0  0  0  0  0  0  0  0
   -4.2657   -0.7566    1.0792 H   0  0  0  0  0  0  0  0  0  0  0  0
    1.0629   -4.9440    0.6720 H   0  0  0  0  0  0  0  0  0  0  0  0
    1.9298   -5.8816    2.6777 H   0  0  0  0  0  0  0  0  0  0  0  0
    2.3419   -2.0234    4.3635 H   0  0  0  0  0  0  0  0  0  0  0  0
    1.4335   -1.0362    2.3010 H   0  0  0  0  0  0  0  0  0  0  0  0
   -1.2255   -4.2617    0.4969 H   0  0  0  0  0  0  0  0  0  0  0  0
   -2.0633   -5.8089   -1.1451 H   0  0  0  0  0  0  0  0  0  0  0  0
    0.4643   -4.0713   -4.0828 H   0  0  0  0  0  0  0  0  0  0  0  0
    1.3275   -2.4777   -2.3931 H   0  0  0  0  0  0  0  0  0  0  0  0
  1  2  3  0
  2  3  1  0
  3  4  2  0
  4  5  1  0
  5  6  1  0
  6  7  2  0
  7  8  1  0
  8  9  2  0
  9 10  1  0
  9 11  1  0
 11 12  2  0
  5 13  1  0
 13 14  2  0
 14 15  1  0
 15 16  2  0
 16 17  1  0
 16 18  1  0
 18 19  2  0
  4 20  1  0
 20 21  1  0
 21 22  3  0
 20 23  2  0
 23 24  1  0
 24 25  1  0
 25 26  2  0
 26 27  1  0
 27 28  2  0
 28 29  1  0
 28 30  1  0
 30 31  2  0
 24 32  1  0
 32 33  2  0
 33 34  1  0
 34 35  2  0
 35 36  1  0
 35 37  1  0
 37 38  2  0
 23 39  1  0
 39 40  1  0
 40 41  1  0
 41 42  2  0
 42 43  1  0
 43 44  2  0
 44 45  1  0
 44 46  1  0
 46 47  2  0
 40 48  1  0
 48 49  2  0
 49 50  1  0
 50 51  2  0
 51 52  1  0
 51 53  1  0
 53 54  2  0
 39 55  2  0
 55 56  1  0
 56 57  1  0
 57 58  2  0
 58 59  1  0
 59 60  2  0
 60 61  1  0
 60 62  1  0
 62 63  2  0
 56 64  1  0
 64 65  2  0
 65 66  1  0
 66 67  2  0
 67 68  1  0
 67 69  1  0
 69 70  2  0
 55  3  1  0
 63 57  1  0
 70 64  1  0
 12  6  1  0
 19 13  1  0
 31 25  1  0
 38 32  1  0
 47 41  1  0
 54 48  1  0
  7 71  1  0
  8 72  1  0
 11 73  1  0
 12 74  1  0
 14 75  1  0
 15 76  1  0
 18 77  1  0
 19 78  1  0
 26 79  1  0
 27 80  1  0
 30 81  1  0
 31 82  1  0
 33 83  1  0
 34 84  1  0
 37 85  1  0
 38 86  1  0
 42 87  1  0
 43 88  1  0
 46 89  1  0
 47 90  1  0
 49 91  1  0
 50 92  1  0
 53 93  1  0
 54 94  1  0
 58 95  1  0
 59 96  1  0
 62 97  1  0
 63 98  1  0
 65 99  1  0
 66100  1  0
 69101  1  0
 70102  1  0
M  END
