
     RDKit          3D

 94106  0  0  0  0  0  0  0  0999 V2000
   -0.1089    3.2182    2.3577 N   0  0  0  0  0  0  0  0  0  0  0  0
   -0.0967    2.2740    1.6851 C   0  0  0  0  0  0  0  0  0  0  0  0
   -0.0728    1.1128    0.8348 C   0  0  0  0  0  0  0  0  0  0  0  0
    1.1460    0.4718    0.5988 C   0  0  0  0  0  0  0  0  0  0  0  0
    2.3213    0.9875    1.2030 N   0  0  0  0  0  0  0  0  0  0  0  0
    3.0562    2.0566    0.8344 C   0  0  0  0  0  0  0  0  0  0  0  0
    2.9227    2.9870   -0.2024 C   0  0  0  0  0  0  0  0  0  0  0  0
    3.8505    3.9986   -0.3207 C   0  0  0  0  0  0  0  0  0  0  0  0
    4.9120    4.1525    0.5274 C   0  0  0  0  0  0  0  0  0  0  0  0
    5.0569    3.2439    1.5543 C   0  0  0  0  0  0  0  0  0  0  0  0
    4.1322    2.2209    1.6864 C   0  0  0  0  0  0  0  0  0  0  0  0
    4.0233    1.1984    2.6003 C   0  0  0  0  0  0  0  0  0  0  0  0
    4.8127    0.8829    3.6692 C   0  0  0  0  0  0  0  0  0  0  0  0
    4.5340   -0.1881    4.4842 C   0  0  0  0  0  0  0  0  0  0  0  0
    3.4287   -0.9358    4.1868 C   0  0  0  0  0  0  0  0  0  0  0  0
    2.6105   -0.6422    3.1133 C   0  0  0  0  0  0  0  0  0  0  0  0
    2.9013    0.4494    2.2876 C   0  0  0  0  0  0  0  0  0  0  0  0
    1.1700   -0.6365   -0.2120 C   0  0  0  0  0  0  0  0  0  0  0  0
    2.4006   -1.3061   -0.4667 N   0  0  0  0  0  0  0  0  0  0  0  0
    3.3037   -0.8298   -1.3625 C   0  0  0  0  0  0  0  0  0  0  0  0
    3.3326    0.2823   -2.2031 C   0  0  0  0  0  0  0  0  0  0  0  0
    4.3818    0.5561   -3.0443 C   0  0  0  0  0  0  0  0  0  0  0  0
    5.4447   -0.3134   -3.0483 C   0  0  0  0  0  0  0  0  0  0  0  0
    5.4233   -1.4225   -2.2152 C   0  0  0  0  0  0  0  0  0  0  0  0
    4.3645   -1.6831   -1.3780 C   0  0  0  0  0  0  0  0  0  0  0  0
    4.0964   -2.6835   -0.4835 C   0  0  0  0  0  0  0  0  0  0  0  0
    4.8054   -3.8070   -0.0982 C   0  0  0  0  0  0  0  0  0  0  0  0
    4.3082   -4.6767    0.8301 C   0  0  0  0  0  0  0  0  0  0  0  0
    3.0601   -4.4069    1.3867 C   0  0  0  0  0  0  0  0  0  0  0  0
    2.3340   -3.3013    1.0245 C   0  0  0  0  0  0  0  0  0  0  0  0
    2.8660   -2.4416    0.0828 C   0  0  0  0  0  0  0  0  0  0  0  0
    0.0122   -1.1307   -0.7991 C   0  0  0  0  0  0  0  0  0  0  0  0
    0.1357   -2.2945   -1.6306 C   0  0  0  0  0  0  0  0  0  0  0  0
    0.2194   -3.2488   -2.3154 N   0  0  0  0  0  0  0  0  0  0  0  0
   -1.2254   -0.5094   -0.5812 C   0  0  0  0  0  0  0  0  0  0  0  0
   -2.3718   -1.0426   -1.1940 N   0  0  0  0  0  0  0  0  0  0  0  0
   -2.9873   -2.1902   -0.8915 C   0  0  0  0  0  0  0  0  0  0  0  0
   -2.7371   -3.1930    0.0580 C   0  0  0  0  0  0  0  0  0  0  0  0
   -3.5171   -4.3165    0.1928 C   0  0  0  0  0  0  0  0  0  0  0  0
   -4.5979   -4.4744   -0.6396 C   0  0  0  0  0  0  0  0  0  0  0  0
   -4.8792   -3.5139   -1.5859 C   0  0  0  0  0  0  0  0  0  0  0  0
   -4.0839   -2.3788   -1.7158 C   0  0  0  0  0  0  0  0  0  0  0  0
   -4.1229   -1.2902   -2.5498 C   0  0  0  0  0  0  0  0  0  0  0  0
   -5.0068   -0.9868   -3.5540 C   0  0  0  0  0  0  0  0  0  0  0  0
   -4.8551    0.1595   -4.2693 C   0  0  0  0  0  0  0  0  0  0  0  0
   -3.8098    0.9937   -3.9659 C   0  0  0  0  0  0  0  0  0  0  0  0
   -2.9339    0.6674   -2.9521 C   0  0  0  0  0  0  0  0  0  0  0  0
   -3.0507   -0.4927   -2.1950 C   0  0  0  0  0  0  0  0  0  0  0  0
   -1.2100    0.6022    0.2393 C   0  0  0  0  0  0  0  0  0  0  0  0
   -2.4405    1.3023    0.5137 N   0  0  0  0  0  0  0  0  0  0  0  0
   -2.7195    2.5282    0.0247 C   0  0  0  0  0  0  0  0  0  0  0  0
   -2.0375    3.4327   -0.7934 C   0  0  0  0  0  0  0  0  0  0  0  0
   -2.5825    4.6406   -1.1305 C   0  0  0  0  0  0  0  0  0  0  0  0
   -3.8382    4.9870   -0.6569 C   0  0  0  0  0  0  0  0  0  0  0  0
   -4.5067    4.0977    0.1466 C   0  0  0  0  0  0  0  0  0  0  0  0
   -3.9691    2.8695    0.4980 C   0  0  0  0  0  0  0  0  0  0  0  0
   -4.4116    1.8163    1.2736 C   0  0  0  0  0  0  0  0  0  0  0  0
   -5.5831    1.6068    1.9962 C   0  0  0  0  0  0  0  0  0  0  0  0
   -5.8149    0.4663    2.7119 C   0  0  0  0  0  0  0  0  0  0  0  0
   -4.8378   -0.5043    2.7066 C   0  0  0  0  0  0  0  0  0  0  0  0
   -3.6576   -0.3350    2.0008 C   0  0  0  0  0  0  0  0  0  0  0  0
   -3.4437    0.8340    1.2788 C   0  0  0  0  0  0  0  0  0  0  0  0
    2.0951    2.8729   -0.8603 H   0  0  0  0  0  0  0  0  0  0  0  0
    3.7281    4.7041   -1.1309 H   0  0  0  0  0  0  0  0  0  0  0  0
    5.6318    4.9622    0.4143 H   0  0  0  0  0  0  0  0  0  0  0  0
    5.8846    3.3155    2.2633 H   0  0  0  0  0  0  0  0  0  0  0  0
    5.6898    1.4856    3.8973 H   0  0  0  0  0  0  0  0  0  0  0  0
    5.1377   -0.4610    5.3327 H   0  0  0  0  0  0  0  0  0  0  0  0
    3.1506   -1.8026    4.7960 H   0  0  0  0  0  0  0  0  0  0  0  0
    1.7438   -1.2299    2.9009 H   0  0  0  0  0  0  0  0  0  0  0  0
    2.4859    0.9515   -2.1950 H   0  0  0  0  0  0  0  0  0  0  0  0
    4.3332    1.4396   -3.6666 H   0  0  0  0  0  0  0  0  0  0  0  0
    6.2856   -0.1264   -3.7011 H   0  0  0  0  0  0  0  0  0  0  0  0
    6.2509   -2.1157   -2.2051 H   0  0  0  0  0  0  0  0  0  0  0  0
    5.7643   -3.9692   -0.5570 H   0  0  0  0  0  0  0  0  0  0  0  0
    4.8847   -5.5374    1.1044 H   0  0  0  0  0  0  0  0  0  0  0  0
    2.7009   -5.1126    2.1151 H   0  0  0  0  0  0  0  0  0  0  0  0
    1.3667   -3.1088    1.4643 H   0  0  0  0  0  0  0  0  0  0  0  0
   -1.8903   -3.0977    0.7269 H   0  0  0  0  0  0  0  0  0  0  0  0
   -3.2754   -5.0698    0.9536 H   0  0  0  0  0  0  0  0  0  0  0  0
   -5.2086   -5.3515   -0.5369 H   0  0  0  0  0  0  0  0  0  0  0  0
   -5.7168   -3.6045   -2.2551 H   0  0  0  0  0  0  0  0  0  0  0  0
   -5.8220   -1.6622   -3.7698 H   0  0  0  0  0  0  0  0  0  0  0  0
   -5.5419    0.4030   -5.0591 H   0  0  0  0  0  0  0  0  0  0  0  0
   -3.7194    1.9021   -4.5599 H   0  0  0  0  0  0  0  0  0  0  0  0
   -2.1258    1.3507   -2.7565 H   0  0  0  0  0  0  0  0  0  0  0  0
   -1.0436    3.1687   -1.1726 H   0  0  0  0  0  0  0  0  0  0  0  0
   -2.0176    5.3170   -1.7707 H   0  0  0  0  0  0  0  0  0  0  0  0
   -4.2792    5.9514   -0.9224 H   0  0  0  0  0  0  0  0  0  0  0  0
   -5.4880    4.3673    0.5177 H   0  0  0  0  0  0  0  0  0  0  0  0
   -6.3212    2.3994    1.9685 H   0  0  0  0  0  0  0  0  0  0  0  0
   -6.7097    0.2760    3.2792 H   0  0  0  0  0  0  0  0  0  0  0  0
   -4.9394   -1.4391    3.2469 H   0  0  0  0  0  0  0  0  0  0  0  0
   -2.8916   -1.0996    2.0042 H   0  0  0  0  0  0  0  0  0  0  0  0
  1  2  3  0
  2  3  1  0
  3  4  2  0
  4  5  1  0
  5  6  1  0
  6  7  2  0
  7  8  1  0
  8  9  2  0
  9 10  1  0
 10 11  2  0
 11 12  1  0
 12 13  2  0
 13 14  1  0
 14 15  2  0
 15 16  1  0
 16 17  2  0
  4 18  1  0
 18 19  1  0
 19 20  1  0
 20 21  2  0
 21 22  1  0
 22 23  2  0
 23 24  1  0
 24 25  2  0
 25 26  1  0
 26 27  2  0
 27 28  1  0
 28 29  2  0
 29 30  1  0
 30 31  2  0
 18 32  2  0
 32 33  1  0
 33 34  3  0
 32 35  1  0
 35 36  1  0
 36 37  1  0
 37 38  2  0
 38 39  1  0
 39 40  2  0
 40 41  1  0
 41 42  2  0
 42 43  1  0
 43 44  2  0
 44 45  1  0
 45 46  2  0
 46 47  1  0
 47 48  2  0
 35 49  2  0
 49 50  1  0
 50 51  1  0
 51 52  2  0
 52 53  1  0
 53 54  2  0
 54 55  1  0
 55 56  2  0
 56 57  1  0
 57 58  2  0
 58 59  1  0
 59 60  2  0
 60 61  1  0
 61 62  2  0
 49  3  1  0
 62 50  1  0
 17  5  1  0
 31 19  1  0
 48 36  1  0
 56 51  1  0
 62 57  1  0
 11  6  1  0
 17 12  1  0
 25 20  1  0
 31 26  1  0
 42 37  1  0
 48 43  1  0
  7 63  1  0
  8 64  1  0
  9 65  1  0
 10 66  1  0
 13 67  1  0
 14 68  1  0
 15 69  1  0
 16 70  1  0
 21 71  1  0
 22 72  1  0
 23 73  1  0
 24 74  1  0
 27 75  1  0
 28 76  1  0
 29 77  1  0
 30 78  1  0
 38 79  1  0
 39 80  1  0
 40 81  1  0
 41 82  1  0
 44 83  1  0
 45 84  1  0
 46 85  1  0
 47 86  1  0
 52 87  1  0
 53 88  1  0
 54 89  1  0
 55 90  1  0
 58 91  1  0
 59 92  1  0
 60 93  1  0
 61 94  1  0
M  END
