
     RDKit          3D

 59 65  0  0  0  0  0  0  0  0999 V2000
   -5.4983    5.1675    0.3619 C   0  0  0  0  0  0  0  0  0  0  0  0
   -6.2685    4.0246    0.2969 C   0  0  0  0  0  0  0  0  0  0  0  0
   -5.6605    2.7667    0.2180 C   0  0  0  0  0  0  0  0  0  0  0  0
   -4.2888    2.6379    0.2032 C   0  0  0  0  0  0  0  0  0  0  0  0
   -3.6714    1.3210    0.1207 C   0  0  0  0  0  0  0  0  0  0  0  0
   -4.3664    0.1890    0.0560 N   0  0  0  0  0  0  0  0  0  0  0  0
   -3.7902   -1.0201   -0.0199 C   0  0  0  0  0  0  0  0  0  0  0  0
   -4.5484   -2.2569   -0.0906 C   0  0  0  0  0  0  0  0  0  0  0  0
   -5.9236   -2.2574   -0.0836 C   0  0  0  0  0  0  0  0  0  0  0  0
   -6.6504   -3.4502   -0.1518 C   0  0  0  0  0  0  0  0  0  0  0  0
   -5.9827   -4.6675   -0.2286 C   0  0  0  0  0  0  0  0  0  0  0  0
   -4.6074   -4.6664   -0.2356 C   0  0  0  0  0  0  0  0  0  0  0  0
   -3.9066   -3.4724   -0.1672 C   0  0  0  0  0  0  0  0  0  0  0  0
   -2.4410   -1.0416   -0.0280 N   0  0  0  0  0  0  0  0  0  0  0  0
   -1.6823    0.0464    0.0337 C   0  0  0  0  0  0  0  0  0  0  0  0
   -0.2298    0.0231    0.0250 C   0  0  0  0  0  0  0  0  0  0  0  0
    0.5407    1.1556    0.0893 C   0  0  0  0  0  0  0  0  0  0  0  0
    1.9195    1.1295    0.0808 C   0  0  0  0  0  0  0  0  0  0  0  0
    2.5443   -0.0949    0.0038 C   0  0  0  0  0  0  0  0  0  0  0  0
    3.9589   -0.1709   -0.0080 N   0  0  0  0  0  0  0  0  0  0  0  0
    4.6902   -0.7849    0.9421 C   0  0  0  0  0  0  0  0  0  0  0  0
    4.3501   -1.4677    2.1111 C   0  0  0  0  0  0  0  0  0  0  0  0
    5.3745   -1.9847    2.8712 C   0  0  0  0  0  0  0  0  0  0  0  0
    6.6895   -1.8324    2.4893 C   0  0  0  0  0  0  0  0  0  0  0  0
    7.0209   -1.1571    1.3336 C   0  0  0  0  0  0  0  0  0  0  0  0
    6.0054   -0.6309    0.5574 C   0  0  0  0  0  0  0  0  0  0  0  0
    6.0323    0.0786   -0.6255 C   0  0  0  0  0  0  0  0  0  0  0  0
    7.0219    0.5276   -1.4692 C   0  0  0  0  0  0  0  0  0  0  0  0
    6.7855    1.2356   -2.6239 C   0  0  0  0  0  0  0  0  0  0  0  0
    5.4776    1.5124   -2.9565 C   0  0  0  0  0  0  0  0  0  0  0  0
    4.4600    1.0792   -2.1365 C   0  0  0  0  0  0  0  0  0  0  0  0
    4.7285    0.3625   -0.9704 C   0  0  0  0  0  0  0  0  0  0  0  0
    1.7781   -1.2356   -0.0611 C   0  0  0  0  0  0  0  0  0  0  0  0
    0.4012   -1.1921   -0.0515 C   0  0  0  0  0  0  0  0  0  0  0  0
   -2.3152    1.2447    0.1092 N   0  0  0  0  0  0  0  0  0  0  0  0
   -3.5279    3.7850    0.2685 C   0  0  0  0  0  0  0  0  0  0  0  0
   -4.1332    5.0371    0.3471 C   0  0  0  0  0  0  0  0  0  0  0  0
   -5.9854    6.1330    0.4225 H   0  0  0  0  0  0  0  0  0  0  0  0
   -7.3367    4.1516    0.3100 H   0  0  0  0  0  0  0  0  0  0  0  0
   -6.3066    1.8968    0.1688 H   0  0  0  0  0  0  0  0  0  0  0  0
   -6.4566   -1.3139   -0.0240 H   0  0  0  0  0  0  0  0  0  0  0  0
   -7.7290   -3.4738   -0.1478 H   0  0  0  0  0  0  0  0  0  0  0  0
   -6.5240   -5.6012   -0.2822 H   0  0  0  0  0  0  0  0  0  0  0  0
   -4.0978   -5.6101   -0.2951 H   0  0  0  0  0  0  0  0  0  0  0  0
   -2.8394   -3.5099   -0.1749 H   0  0  0  0  0  0  0  0  0  0  0  0
    0.0716    2.1444    0.1513 H   0  0  0  0  0  0  0  0  0  0  0  0
    2.5037    2.0666    0.1343 H   0  0  0  0  0  0  0  0  0  0  0  0
    3.3049   -1.5589    2.3650 H   0  0  0  0  0  0  0  0  0  0  0  0
    5.1520   -2.5311    3.8019 H   0  0  0  0  0  0  0  0  0  0  0  0
    7.4867   -2.2504    3.1069 H   0  0  0  0  0  0  0  0  0  0  0  0
    8.0307   -1.0086    0.9878 H   0  0  0  0  0  0  0  0  0  0  0  0
    8.0465    0.3057   -1.2001 H   0  0  0  0  0  0  0  0  0  0  0  0
    7.5659    1.5894   -3.2887 H   0  0  0  0  0  0  0  0  0  0  0  0
    5.2781    2.0687   -3.8625 H   0  0  0  0  0  0  0  0  0  0  0  0
    3.4482    1.3136   -2.4276 H   0  0  0  0  0  0  0  0  0  0  0  0
    2.2360   -2.2375   -0.1239 H   0  0  0  0  0  0  0  0  0  0  0  0
   -0.1555   -2.1355   -0.1056 H   0  0  0  0  0  0  0  0  0  0  0  0
   -2.4531    3.7001    0.2579 H   0  0  0  0  0  0  0  0  0  0  0  0
   -3.5267    5.9208    0.3972 H   0  0  0  0  0  0  0  0  0  0  0  0
  1  2  2  0
  2  3  1  0
  3  4  2  0
  4  5  1  0
  5  6  2  0
  6  7  1  0
  7  8  1  0
  8  9  2  0
  9 10  1  0
 10 11  2  0
 11 12  1  0
 12 13  2  0
  7 14  2  0
 14 15  1  0
 15 16  1  0
 16 17  2  0
 17 18  1  0
 18 19  2  0
 19 20  1  0
 20 21  1  0
 21 22  2  0
 22 23  1  0
 23 24  2  0
 24 25  1  0
 25 26  2  0
 26 27  1  0
 27 28  2  0
 28 29  1  0
 29 30  2  0
 30 31  1  0
 31 32  2  0
 19 33  1  0
 33 34  2  0
 15 35  2  0
  4 36  1  0
 36 37  2  0
 37  1  1  0
 35  5  1  0
 13  8  1  0
 34 16  1  0
 32 20  1  0
 26 21  1  0
 32 27  1  0
  1 38  1  0
  2 39  1  0
  3 40  1  0
  9 41  1  0
 10 42  1  0
 11 43  1  0
 12 44  1  0
 13 45  1  0
 17 46  1  0
 18 47  1  0
 22 48  1  0
 23 49  1  0
 24 50  1  0
 25 51  1  0
 28 52  1  0
 29 53  1  0
 30 54  1  0
 31 55  1  0
 33 56  1  0
 34 57  1  0
 36 58  1  0
 37 59  1  0
M  END
