
     RDKit          3D

 83 89  0  0  0  0  0  0  0  0999 V2000
   -5.9707    4.5365    0.0285 C   0  0  0  0  0  0  0  0  0  0  0  0
   -5.5307    3.7308    1.2126 C   0  0  0  0  0  0  0  0  0  0  0  0
   -6.6894    2.9653    1.7826 C   0  0  0  0  0  0  0  0  0  0  0  0
   -5.0540    4.7009    2.3016 C   0  0  0  0  0  0  0  0  0  0  0  0
   -4.4287    2.7873    0.8888 C   0  0  0  0  0  0  0  0  0  0  0  0
   -3.1025    3.1509    1.0002 C   0  0  0  0  0  0  0  0  0  0  0  0
   -2.0498    2.3219    0.7151 C   0  0  0  0  0  0  0  0  0  0  0  0
   -2.3195    1.0313    0.2859 C   0  0  0  0  0  0  0  0  0  0  0  0
   -3.6333    0.6293    0.1615 C   0  0  0  0  0  0  0  0  0  0  0  0
   -4.6789    1.4802    0.4539 C   0  0  0  0  0  0  0  0  0  0  0  0
   -3.6385   -0.6821   -0.2767 C   0  0  0  0  0  0  0  0  0  0  0  0
   -4.6250   -1.5973   -0.5750 C   0  0  0  0  0  0  0  0  0  0  0  0
   -4.3444   -2.8970   -1.0114 C   0  0  0  0  0  0  0  0  0  0  0  0
   -5.4215   -3.8409   -1.3206 C   0  0  0  0  0  0  0  0  0  0  0  0
   -5.8276   -3.7646   -2.7987 C   0  0  0  0  0  0  0  0  0  0  0  0
   -6.7023   -3.4561   -0.5612 C   0  0  0  0  0  0  0  0  0  0  0  0
   -5.1490   -5.2674   -0.9705 C   0  0  0  0  0  0  0  0  0  0  0  0
   -3.0114   -3.2190   -1.1292 C   0  0  0  0  0  0  0  0  0  0  0  0
   -1.9799   -2.3571   -0.8491 C   0  0  0  0  0  0  0  0  0  0  0  0
   -2.3173   -1.0755   -0.4183 C   0  0  0  0  0  0  0  0  0  0  0  0
   -1.5555   -0.0178   -0.0706 N   0  0  0  0  0  0  0  0  0  0  0  0
   -0.1357   -0.0015   -0.0757 C   0  0  0  0  0  0  0  0  0  0  0  0
    0.5278    1.0183   -0.7148 C   0  0  0  0  0  0  0  0  0  0  0  0
    1.8962    1.0214   -0.7110 C   0  0  0  0  0  0  0  0  0  0  0  0
    2.6407    0.0462   -0.0941 C   0  0  0  0  0  0  0  0  0  0  0  0
    4.0908    0.0544   -0.0928 C   0  0  0  0  0  0  0  0  0  0  0  0
    4.8132   -0.9052    0.5138 N   0  0  0  0  0  0  0  0  0  0  0  0
    6.1516   -0.9260    0.5334 C   0  0  0  0  0  0  0  0  0  0  0  0
    6.9089   -1.9721    1.1944 C   0  0  0  0  0  0  0  0  0  0  0  0
    6.2326   -2.9864    1.8275 C   0  0  0  0  0  0  0  0  0  0  0  0
    6.8943   -4.0148    2.4768 C   0  0  0  0  0  0  0  0  0  0  0  0
    8.2740   -4.0338    2.4964 C   0  0  0  0  0  0  0  0  0  0  0  0
    8.9715   -3.0288    1.8694 C   0  0  0  0  0  0  0  0  0  0  0  0
    8.2844   -1.9997    1.2195 C   0  0  0  0  0  0  0  0  0  0  0  0
    6.7833    0.0855   -0.0990 N   0  0  0  0  0  0  0  0  0  0  0  0
    6.1386    1.0813   -0.7280 C   0  0  0  0  0  0  0  0  0  0  0  0
    6.8702    2.1477   -1.3943 C   0  0  0  0  0  0  0  0  0  0  0  0
    8.2451    2.1118   -1.3648 C   0  0  0  0  0  0  0  0  0  0  0  0
    9.0112    3.1035   -1.9840 C   0  0  0  0  0  0  0  0  0  0  0  0
    8.3877    4.1434   -2.6405 C   0  0  0  0  0  0  0  0  0  0  0  0
    7.0080    4.1921   -2.6780 C   0  0  0  0  0  0  0  0  0  0  0  0
    6.2675    3.1940   -2.0547 C   0  0  0  0  0  0  0  0  0  0  0  0
    4.7916    1.0310   -0.7030 N   0  0  0  0  0  0  0  0  0  0  0  0
    1.9527   -0.9623    0.5377 C   0  0  0  0  0  0  0  0  0  0  0  0
    0.5640   -1.0014    0.5566 C   0  0  0  0  0  0  0  0  0  0  0  0
   -5.8423    4.0318   -0.9385 H   0  0  0  0  0  0  0  0  0  0  0  0
   -5.4889    5.5419   -0.0052 H   0  0  0  0  0  0  0  0  0  0  0  0
   -7.0620    4.7377    0.1441 H   0  0  0  0  0  0  0  0  0  0  0  0
   -6.2940    2.2041    2.4904 H   0  0  0  0  0  0  0  0  0  0  0  0
   -7.3061    2.4608    1.0255 H   0  0  0  0  0  0  0  0  0  0  0  0
   -7.3395    3.6354    2.4092 H   0  0  0  0  0  0  0  0  0  0  0  0
   -4.4461    5.5266    1.8586 H   0  0  0  0  0  0  0  0  0  0  0  0
   -4.3434    4.1119    2.9320 H   0  0  0  0  0  0  0  0  0  0  0  0
   -5.8837    5.0532    2.9259 H   0  0  0  0  0  0  0  0  0  0  0  0
   -2.8964    4.1565    1.3347 H   0  0  0  0  0  0  0  0  0  0  0  0
   -1.0262    2.6608    0.8207 H   0  0  0  0  0  0  0  0  0  0  0  0
   -5.7173    1.1900    0.3648 H   0  0  0  0  0  0  0  0  0  0  0  0
   -5.6499   -1.2804   -0.4611 H   0  0  0  0  0  0  0  0  0  0  0  0
   -6.6251   -4.5540   -2.9180 H   0  0  0  0  0  0  0  0  0  0  0  0
   -6.3320   -2.7989   -2.9475 H   0  0  0  0  0  0  0  0  0  0  0  0
   -4.9763   -3.9517   -3.4591 H   0  0  0  0  0  0  0  0  0  0  0  0
   -7.3661   -4.3511   -0.6429 H   0  0  0  0  0  0  0  0  0  0  0  0
   -7.2059   -2.6003   -1.0656 H   0  0  0  0  0  0  0  0  0  0  0  0
   -6.4630   -3.2816    0.4880 H   0  0  0  0  0  0  0  0  0  0  0  0
   -5.7407   -5.9563   -1.6423 H   0  0  0  0  0  0  0  0  0  0  0  0
   -4.1160   -5.5980   -1.0417 H   0  0  0  0  0  0  0  0  0  0  0  0
   -5.4669   -5.4330    0.1000 H   0  0  0  0  0  0  0  0  0  0  0  0
   -2.6980   -4.2160   -1.4662 H   0  0  0  0  0  0  0  0  0  0  0  0
   -0.9362   -2.6353   -0.9501 H   0  0  0  0  0  0  0  0  0  0  0  0
   -0.0040    1.8334   -1.2300 H   0  0  0  0  0  0  0  0  0  0  0  0
    2.3953    1.8510   -1.2312 H   0  0  0  0  0  0  0  0  0  0  0  0
    5.1474   -2.9916    1.8246 H   0  0  0  0  0  0  0  0  0  0  0  0
    6.3353   -4.7985    2.9656 H   0  0  0  0  0  0  0  0  0  0  0  0
    8.8071   -4.8456    3.0090 H   0  0  0  0  0  0  0  0  0  0  0  0
   10.0475   -3.0608    1.8957 H   0  0  0  0  0  0  0  0  0  0  0  0
    8.8362   -1.2128    0.7285 H   0  0  0  0  0  0  0  0  0  0  0  0
    8.7434    1.2987   -0.8514 H   0  0  0  0  0  0  0  0  0  0  0  0
   10.0918    3.0935   -1.9724 H   0  0  0  0  0  0  0  0  0  0  0  0
    8.9586    4.9404   -3.1384 H   0  0  0  0  0  0  0  0  0  0  0  0
    6.5481    5.0205   -3.2007 H   0  0  0  0  0  0  0  0  0  0  0  0
    5.2067    3.2466   -2.0930 H   0  0  0  0  0  0  0  0  0  0  0  0
    2.5025   -1.7551    1.0390 H   0  0  0  0  0  0  0  0  0  0  0  0
    0.0654   -1.8323    1.0774 H   0  0  0  0  0  0  0  0  0  0  0  0
  1  2  1  0
  2  3  1  0
  2  4  1  0
  2  5  1  0
  5  6  2  0
  6  7  1  0
  7  8  2  0
  8  9  1  0
  9 10  2  0
  9 11  1  0
 11 12  2  0
 12 13  1  0
 13 14  1  0
 14 15  1  0
 14 16  1  0
 14 17  1  0
 13 18  2  0
 18 19  1  0
 19 20  2  0
 20 21  1  0
 21 22  1  0
 22 23  2  0
 23 24  1  0
 24 25  2  0
 25 26  1  0
 26 27  2  0
 27 28  1  0
 28 29  1  0
 29 30  2  0
 30 31  1  0
 31 32  2  0
 32 33  1  0
 33 34  2  0
 28 35  2  0
 35 36  1  0
 36 37  1  0
 37 38  2  0
 38 39  1  0
 39 40  2  0
 40 41  1  0
 41 42  2  0
 36 43  2  0
 25 44  1  0
 44 45  2  0
 10  5  1  0
 20 11  1  0
 45 22  1  0
 21  8  1  0
 43 26  1  0
 34 29  1  0
 42 37  1  0
  1 46  1  0
  1 47  1  0
  1 48  1  0
  3 49  1  0
  3 50  1  0
  3 51  1  0
  4 52  1  0
  4 53  1  0
  4 54  1  0
  6 55  1  0
  7 56  1  0
 10 57  1  0
 12 58  1  0
 15 59  1  0
 15 60  1  0
 15 61  1  0
 16 62  1  0
 16 63  1  0
 16 64  1  0
 17 65  1  0
 17 66  1  0
 17 67  1  0
 18 68  1  0
 19 69  1  0
 23 70  1  0
 24 71  1  0
 30 72  1  0
 31 73  1  0
 32 74  1  0
 33 75  1  0
 34 76  1  0
 38 77  1  0
 39 78  1  0
 40 79  1  0
 41 80  1  0
 42 81  1  0
 44 82  1  0
 45 83  1  0
M  END
