
     RDKit          3D

 60 66  0  0  0  0  0  0  0  0999 V2000
   -5.8437   -4.0962   -2.2012 C   0  0  0  0  0  0  0  0  0  0  0  0
   -6.4989   -2.9905   -1.6854 C   0  0  0  0  0  0  0  0  0  0  0  0
   -5.7924   -1.9324   -1.1464 C   0  0  0  0  0  0  0  0  0  0  0  0
   -4.4176   -1.9303   -1.0984 C   0  0  0  0  0  0  0  0  0  0  0  0
   -3.6512   -0.8238   -0.5337 C   0  0  0  0  0  0  0  0  0  0  0  0
   -4.2598    0.2730   -0.0207 N   0  0  0  0  0  0  0  0  0  0  0  0
   -3.5368    1.2792    0.4937 C   0  0  0  0  0  0  0  0  0  0  0  0
   -4.2223    2.4448    1.0377 C   0  0  0  0  0  0  0  0  0  0  0  0
   -5.5967    2.5533    1.0438 C   0  0  0  0  0  0  0  0  0  0  0  0
   -6.2317    3.6624    1.5619 C   0  0  0  0  0  0  0  0  0  0  0  0
   -5.5240    4.7167    2.0991 C   0  0  0  0  0  0  0  0  0  0  0  0
   -4.1440    4.6216    2.0998 C   0  0  0  0  0  0  0  0  0  0  0  0
   -3.5082    3.5131    1.5819 C   0  0  0  0  0  0  0  0  0  0  0  0
   -2.2099    1.1570    0.4795 N   0  0  0  0  0  0  0  0  0  0  0  0
   -1.5618    0.1004   -0.0127 C   0  0  0  0  0  0  0  0  0  0  0  0
   -0.1161   -0.0260   -0.0249 C   0  0  0  0  0  0  0  0  0  0  0  0
    0.5250   -1.1286   -0.5397 C   0  0  0  0  0  0  0  0  0  0  0  0
    1.9086   -1.2220   -0.5380 C   0  0  0  0  0  0  0  0  0  0  0  0
    2.6494   -0.1884   -0.0096 C   0  0  0  0  0  0  0  0  0  0  0  0
    4.0913   -0.2508    0.0275 N   0  0  0  0  0  0  0  0  0  0  0  0
    4.7794    0.6515   -0.7942 C   0  0  0  0  0  0  0  0  0  0  0  0
    4.0846    1.5288   -1.6023 C   0  0  0  0  0  0  0  0  0  0  0  0
    4.7176    2.4503   -2.4464 C   0  0  0  0  0  0  0  0  0  0  0  0
    6.0939    2.4744   -2.4644 C   0  0  0  0  0  0  0  0  0  0  0  0
    6.7810    1.6147   -1.6730 C   0  0  0  0  0  0  0  0  0  0  0  0
    6.1476    0.7332   -0.8655 C   0  0  0  0  0  0  0  0  0  0  0  0
    7.1540   -0.3445    0.1173 S   0  0  0  0  0  0  0  0  0  0  0  0
    6.0469   -1.3751    1.0554 C   0  0  0  0  0  0  0  0  0  0  0  0
    6.5961   -2.2867    1.8936 C   0  0  0  0  0  0  0  0  0  0  0  0
    5.7781   -3.1082    2.6492 C   0  0  0  0  0  0  0  0  0  0  0  0
    4.4121   -2.9685    2.5213 C   0  0  0  0  0  0  0  0  0  0  0  0
    3.8804   -2.0263    1.6550 C   0  0  0  0  0  0  0  0  0  0  0  0
    4.6922   -1.1900    0.8852 C   0  0  0  0  0  0  0  0  0  0  0  0
    2.0083    0.9106    0.5035 C   0  0  0  0  0  0  0  0  0  0  0  0
    0.6370    0.9996    0.5001 C   0  0  0  0  0  0  0  0  0  0  0  0
   -2.3087   -0.8970   -0.5236 N   0  0  0  0  0  0  0  0  0  0  0  0
   -3.7777   -3.0371   -1.6152 C   0  0  0  0  0  0  0  0  0  0  0  0
   -4.4717   -4.0986   -2.1555 C   0  0  0  0  0  0  0  0  0  0  0  0
   -6.4309   -4.9124   -2.6185 H   0  0  0  0  0  0  0  0  0  0  0  0
   -7.5598   -2.9887   -1.7208 H   0  0  0  0  0  0  0  0  0  0  0  0
   -6.3129   -1.0649   -0.7420 H   0  0  0  0  0  0  0  0  0  0  0  0
   -6.1829    1.7272    0.6217 H   0  0  0  0  0  0  0  0  0  0  0  0
   -7.3181    3.6934    1.5401 H   0  0  0  0  0  0  0  0  0  0  0  0
   -6.0000    5.5967    2.5111 H   0  0  0  0  0  0  0  0  0  0  0  0
   -3.5699    5.4471    2.5211 H   0  0  0  0  0  0  0  0  0  0  0  0
   -2.4229    3.4298    1.5783 H   0  0  0  0  0  0  0  0  0  0  0  0
   -0.0827   -1.9406   -0.9557 H   0  0  0  0  0  0  0  0  0  0  0  0
    2.4090   -2.0874   -0.9422 H   0  0  0  0  0  0  0  0  0  0  0  0
    2.9997    1.5222   -1.6071 H   0  0  0  0  0  0  0  0  0  0  0  0
    4.1488    3.1087   -3.0528 H   0  0  0  0  0  0  0  0  0  0  0  0
    6.5817    3.1819   -3.1123 H   0  0  0  0  0  0  0  0  0  0  0  0
    7.8807    1.6669   -1.7177 H   0  0  0  0  0  0  0  0  0  0  0  0
    7.6626   -2.4331    2.0280 H   0  0  0  0  0  0  0  0  0  0  0  0
    6.1921   -3.8454    3.3269 H   0  0  0  0  0  0  0  0  0  0  0  0
    3.7758   -3.6086    3.1102 H   0  0  0  0  0  0  0  0  0  0  0  0
    2.7936   -1.9334    1.5783 H   0  0  0  0  0  0  0  0  0  0  0  0
    2.5812    1.7475    0.9304 H   0  0  0  0  0  0  0  0  0  0  0  0
    0.1544    1.8973    0.9206 H   0  0  0  0  0  0  0  0  0  0  0  0
   -2.6824   -3.0314   -1.5750 H   0  0  0  0  0  0  0  0  0  0  0  0
   -3.9279   -4.9361   -2.5446 H   0  0  0  0  0  0  0  0  0  0  0  0
  1  2  2  0
  2  3  1  0
  3  4  2  0
  4  5  1  0
  5  6  2  0
  6  7  1  0
  7  8  1  0
  8  9  2  0
  9 10  1  0
 10 11  2  0
 11 12  1  0
 12 13  2  0
  7 14  2  0
 14 15  1  0
 15 16  1  0
 16 17  2  0
 17 18  1  0
 18 19  2  0
 19 20  1  0
 20 21  1  0
 21 22  2  0
 22 23  1  0
 23 24  2  0
 24 25  1  0
 25 26  2  0
 26 27  1  0
 27 28  1  0
 28 29  2  0
 29 30  1  0
 30 31  2  0
 31 32  1  0
 32 33  2  0
 19 34  1  0
 34 35  2  0
 15 36  2  0
  4 37  1  0
 37 38  2  0
 38  1  1  0
 36  5  1  0
 13  8  1  0
 35 16  1  0
 33 20  1  0
 26 21  1  0
 33 28  1  0
  1 39  1  0
  2 40  1  0
  3 41  1  0
  9 42  1  0
 10 43  1  0
 11 44  1  0
 12 45  1  0
 13 46  1  0
 17 47  1  0
 18 48  1  0
 22 49  1  0
 23 50  1  0
 24 51  1  0
 25 52  1  0
 29 53  1  0
 30 54  1  0
 31 55  1  0
 32 56  1  0
 34 57  1  0
 35 58  1  0
 37 59  1  0
 38 60  1  0
M  END
