
     RDKit          3D

 68 73  0  0  0  0  0  0  0  0999 V2000
   -0.0370    3.1317   -0.4961 O   0  0  0  0  0  0  0  0  0  0  0  0
    0.0061    1.8278   -0.4203 C   0  0  0  0  0  0  0  0  0  0  0  0
    1.3216    1.2580   -0.3586 C   0  0  0  0  0  0  0  0  0  0  0  0
    1.7405    0.0392   -0.8115 C   0  0  0  0  0  0  0  0  0  0  0  0
    3.0387   -0.4381   -0.6667 C   0  0  0  0  0  0  0  0  0  0  0  0
    3.9706    0.3334   -0.0384 C   0  0  0  0  0  0  0  0  0  0  0  0
    5.3266   -0.0607    0.1604 N   0  0  0  0  0  0  0  0  0  0  0  0
    5.7169   -0.0885    1.5472 C   0  0  0  0  0  0  0  0  0  0  0  0
    5.3224   -1.1066    2.3578 C   0  0  0  0  0  0  0  0  0  0  0  0
    5.6746   -1.1229    3.7154 C   0  0  0  0  0  0  0  0  0  0  0  0
    6.4280   -0.0808    4.1975 C   0  0  0  0  0  0  0  0  0  0  0  0
    6.8161    0.9353    3.3666 C   0  0  0  0  0  0  0  0  0  0  0  0
    6.4682    0.9572    2.0134 C   0  0  0  0  0  0  0  0  0  0  0  0
    6.2691   -0.3524   -0.8161 C   0  0  0  0  0  0  0  0  0  0  0  0
    6.1520    0.0279   -2.1327 C   0  0  0  0  0  0  0  0  0  0  0  0
    7.1367   -0.2869   -3.0442 C   0  0  0  0  0  0  0  0  0  0  0  0
    8.2624   -0.9890   -2.6674 C   0  0  0  0  0  0  0  0  0  0  0  0
    8.4056   -1.3827   -1.3550 C   0  0  0  0  0  0  0  0  0  0  0  0
    7.4197   -1.0605   -0.4687 C   0  0  0  0  0  0  0  0  0  0  0  0
    3.5674    1.5911    0.4380 C   0  0  0  0  0  0  0  0  0  0  0  0
    2.2902    2.0451    0.2870 C   0  0  0  0  0  0  0  0  0  0  0  0
   -1.2890    1.2004   -0.4055 C   0  0  0  0  0  0  0  0  0  0  0  0
   -1.5805   -0.0454    0.0764 C   0  0  0  0  0  0  0  0  0  0  0  0
   -2.8762   -0.5667    0.1329 C   0  0  0  0  0  0  0  0  0  0  0  0
   -3.9233    0.2091   -0.3182 C   0  0  0  0  0  0  0  0  0  0  0  0
   -5.2840   -0.2127   -0.2448 N   0  0  0  0  0  0  0  0  0  0  0  0
   -5.7179   -1.5450   -0.1129 C   0  0  0  0  0  0  0  0  0  0  0  0
   -6.6567   -1.8523    0.8821 C   0  0  0  0  0  0  0  0  0  0  0  0
   -7.1513   -3.1159    1.0729 C   0  0  0  0  0  0  0  0  0  0  0  0
   -6.7081   -4.1397    0.2513 C   0  0  0  0  0  0  0  0  0  0  0  0
   -5.7820   -3.8536   -0.7364 C   0  0  0  0  0  0  0  0  0  0  0  0
   -5.2930   -2.5833   -0.9180 C   0  0  0  0  0  0  0  0  0  0  0  0
   -6.2657    0.8532   -0.2921 C   0  0  0  0  0  0  0  0  0  0  0  0
   -6.5151    1.5598    0.8866 C   0  0  0  0  0  0  0  0  0  0  0  0
   -7.4113    2.6039    0.8350 C   0  0  0  0  0  0  0  0  0  0  0  0
   -8.0238    2.9207   -0.3409 C   0  0  0  0  0  0  0  0  0  0  0  0
   -7.7840    2.2210   -1.5249 C   0  0  0  0  0  0  0  0  0  0  0  0
   -6.8868    1.1785   -1.4663 C   0  0  0  0  0  0  0  0  0  0  0  0
   -3.6768    1.4655   -0.8155 C   0  0  0  0  0  0  0  0  0  0  0  0
   -2.3911    1.9387   -0.8538 C   0  0  0  0  0  0  0  0  0  0  0  0
    0.9793   -0.5732   -1.3222 H   0  0  0  0  0  0  0  0  0  0  0  0
    3.2932   -1.4401   -1.0695 H   0  0  0  0  0  0  0  0  0  0  0  0
    4.7336   -1.9263    1.9869 H   0  0  0  0  0  0  0  0  0  0  0  0
    5.3492   -1.9399    4.3319 H   0  0  0  0  0  0  0  0  0  0  0  0
    6.7168   -0.0627    5.2401 H   0  0  0  0  0  0  0  0  0  0  0  0
    7.4050    1.7505    3.7459 H   0  0  0  0  0  0  0  0  0  0  0  0
    6.7933    1.7887    1.3680 H   0  0  0  0  0  0  0  0  0  0  0  0
    5.2731    0.5797   -2.4308 H   0  0  0  0  0  0  0  0  0  0  0  0
    7.0842   -0.0014   -4.0854 H   0  0  0  0  0  0  0  0  0  0  0  0
    9.0550   -1.2447   -3.3699 H   0  0  0  0  0  0  0  0  0  0  0  0
    9.2733   -1.9372   -1.0097 H   0  0  0  0  0  0  0  0  0  0  0  0
    7.5450   -1.3775    0.5588 H   0  0  0  0  0  0  0  0  0  0  0  0
    4.2803    2.2286    0.9421 H   0  0  0  0  0  0  0  0  0  0  0  0
    1.9818    3.0279    0.6644 H   0  0  0  0  0  0  0  0  0  0  0  0
   -0.7660   -0.6757    0.4407 H   0  0  0  0  0  0  0  0  0  0  0  0
   -3.0541   -1.5573    0.5234 H   0  0  0  0  0  0  0  0  0  0  0  0
   -6.9788   -1.0430    1.5034 H   0  0  0  0  0  0  0  0  0  0  0  0
   -7.8774   -3.2826    1.8708 H   0  0  0  0  0  0  0  0  0  0  0  0
   -7.1202   -5.1223    0.4307 H   0  0  0  0  0  0  0  0  0  0  0  0
   -5.4412   -4.6606   -1.3844 H   0  0  0  0  0  0  0  0  0  0  0  0
   -4.5655   -2.3396   -1.6938 H   0  0  0  0  0  0  0  0  0  0  0  0
   -6.0338    1.3159    1.8212 H   0  0  0  0  0  0  0  0  0  0  0  0
   -7.6083    3.1594    1.7609 H   0  0  0  0  0  0  0  0  0  0  0  0
   -8.7116    3.7369   -0.3569 H   0  0  0  0  0  0  0  0  0  0  0  0
   -8.3097    2.5423   -2.4067 H   0  0  0  0  0  0  0  0  0  0  0  0
   -6.6998    0.6340   -2.3909 H   0  0  0  0  0  0  0  0  0  0  0  0
   -4.4703    2.0911   -1.1800 H   0  0  0  0  0  0  0  0  0  0  0  0
   -2.2066    2.9153   -1.2484 H   0  0  0  0  0  0  0  0  0  0  0  0
  1  2  2  0
  2  3  1  0
  3  4  2  0
  4  5  1  0
  5  6  2  0
  6  7  1  0
  7  8  1  0
  8  9  2  0
  9 10  1  0
 10 11  2  0
 11 12  1  0
 12 13  2  0
  7 14  1  0
 14 15  2  0
 15 16  1  0
 16 17  2  0
 17 18  1  0
 18 19  2  0
  6 20  1  0
 20 21  2  0
  2 22  1  0
 22 23  2  0
 23 24  1  0
 24 25  2  0
 25 26  1  0
 26 27  1  0
 27 28  2  0
 28 29  1  0
 29 30  2  0
 30 31  1  0
 31 32  2  0
 26 33  1  0
 33 34  2  0
 34 35  1  0
 35 36  2  0
 36 37  1  0
 37 38  2  0
 25 39  1  0
 39 40  2  0
 21  3  1  0
 40 22  1  0
 13  8  1  0
 19 14  1  0
 32 27  1  0
 38 33  1  0
  4 41  1  0
  5 42  1  0
  9 43  1  0
 10 44  1  0
 11 45  1  0
 12 46  1  0
 13 47  1  0
 15 48  1  0
 16 49  1  0
 17 50  1  0
 18 51  1  0
 19 52  1  0
 20 53  1  0
 21 54  1  0
 23 55  1  0
 24 56  1  0
 28 57  1  0
 29 58  1  0
 30 59  1  0
 31 60  1  0
 32 61  1  0
 34 62  1  0
 35 63  1  0
 36 64  1  0
 37 65  1  0
 38 66  1  0
 39 67  1  0
 40 68  1  0
M  END
