
     RDKit          3D

 80 85  0  0  0  0  0  0  0  0999 V2000
   -9.7845   -0.2608    3.4270 C   0  0  0  0  0  0  0  0  0  0  0  0
   -8.5155   -0.1794    2.6358 C   0  0  0  0  0  0  0  0  0  0  0  0
   -8.4160   -0.7453    1.3834 C   0  0  0  0  0  0  0  0  0  0  0  0
   -7.2438   -0.6705    0.6600 C   0  0  0  0  0  0  0  0  0  0  0  0
   -6.1206   -0.0326    1.1449 C   0  0  0  0  0  0  0  0  0  0  0  0
   -4.9136    0.0539    0.3786 N   0  0  0  0  0  0  0  0  0  0  0  0
   -5.0545    0.1017   -1.0387 C   0  0  0  0  0  0  0  0  0  0  0  0
   -6.1520    0.7025   -1.6288 C   0  0  0  0  0  0  0  0  0  0  0  0
   -6.3029    0.7452   -3.0074 C   0  0  0  0  0  0  0  0  0  0  0  0
   -5.3634    0.1899   -3.8426 C   0  0  0  0  0  0  0  0  0  0  0  0
   -5.5312    0.2427   -5.3355 C   0  0  0  0  0  0  0  0  0  0  0  0
   -4.2670   -0.4108   -3.2675 C   0  0  0  0  0  0  0  0  0  0  0  0
   -4.1136   -0.4551   -1.8766 C   0  0  0  0  0  0  0  0  0  0  0  0
   -3.6286    0.0730    1.0177 C   0  0  0  0  0  0  0  0  0  0  0  0
   -2.5736    0.6653    0.3813 C   0  0  0  0  0  0  0  0  0  0  0  0
   -1.3100    0.6794    0.9716 C   0  0  0  0  0  0  0  0  0  0  0  0
   -1.0681    0.1102    2.1984 C   0  0  0  0  0  0  0  0  0  0  0  0
    0.2385    0.0729    2.8302 C   0  0  0  0  0  0  0  0  0  0  0  0
    0.2926    0.0364    4.0836 O   0  0  0  0  0  0  0  0  0  0  0  0
    1.5040    0.0749    2.0993 C   0  0  0  0  0  0  0  0  0  0  0  0
    1.5363   -0.4418    0.8228 C   0  0  0  0  0  0  0  0  0  0  0  0
    2.7058   -0.4350    0.1050 C   0  0  0  0  0  0  0  0  0  0  0  0
    3.8838    0.0827    0.6252 C   0  0  0  0  0  0  0  0  0  0  0  0
    5.0794    0.0415   -0.1553 N   0  0  0  0  0  0  0  0  0  0  0  0
    6.0463    1.0622   -0.0168 C   0  0  0  0  0  0  0  0  0  0  0  0
    5.6424    2.3246    0.3657 C   0  0  0  0  0  0  0  0  0  0  0  0
    6.5917    3.3397    0.5203 C   0  0  0  0  0  0  0  0  0  0  0  0
    7.9431    3.1291    0.3020 C   0  0  0  0  0  0  0  0  0  0  0  0
    8.9563    4.2162    0.4648 C   0  0  0  0  0  0  0  0  0  0  0  0
    8.3149    1.8625   -0.0771 C   0  0  0  0  0  0  0  0  0  0  0  0
    7.3905    0.8513   -0.2331 C   0  0  0  0  0  0  0  0  0  0  0  0
    5.2576   -1.0505   -1.0347 C   0  0  0  0  0  0  0  0  0  0  0  0
    5.9895   -0.9483   -2.1906 C   0  0  0  0  0  0  0  0  0  0  0  0
    6.1512   -2.0732   -3.0111 C   0  0  0  0  0  0  0  0  0  0  0  0
    5.5928   -3.2748   -2.6829 C   0  0  0  0  0  0  0  0  0  0  0  0
    5.7446   -4.5100   -3.5328 C   0  0  0  0  0  0  0  0  0  0  0  0
    4.8535   -3.3870   -1.5207 C   0  0  0  0  0  0  0  0  0  0  0  0
    4.6969   -2.2618   -0.7081 C   0  0  0  0  0  0  0  0  0  0  0  0
    3.8117    0.5893    1.9017 C   0  0  0  0  0  0  0  0  0  0  0  0
    2.6583    0.5965    2.6431 C   0  0  0  0  0  0  0  0  0  0  0  0
   -2.1379   -0.4931    2.8511 C   0  0  0  0  0  0  0  0  0  0  0  0
   -3.3903   -0.4972    2.2451 C   0  0  0  0  0  0  0  0  0  0  0  0
   -6.2106    0.5367    2.3967 C   0  0  0  0  0  0  0  0  0  0  0  0
   -7.3994    0.4592    3.1277 C   0  0  0  0  0  0  0  0  0  0  0  0
   -9.6033   -0.5920    4.4717 H   0  0  0  0  0  0  0  0  0  0  0  0
  -10.4676   -1.0308    2.9940 H   0  0  0  0  0  0  0  0  0  0  0  0
  -10.3491    0.6693    3.4575 H   0  0  0  0  0  0  0  0  0  0  0  0
   -9.3016   -1.2492    0.9989 H   0  0  0  0  0  0  0  0  0  0  0  0
   -7.1832   -1.1262   -0.3215 H   0  0  0  0  0  0  0  0  0  0  0  0
   -6.8900    1.1449   -0.9627 H   0  0  0  0  0  0  0  0  0  0  0  0
   -7.1653    1.2177   -3.4495 H   0  0  0  0  0  0  0  0  0  0  0  0
   -5.0966   -0.6396   -5.8031 H   0  0  0  0  0  0  0  0  0  0  0  0
   -6.6413    0.3003   -5.5227 H   0  0  0  0  0  0  0  0  0  0  0  0
   -5.1329    1.2100   -5.7002 H   0  0  0  0  0  0  0  0  0  0  0  0
   -3.5108   -0.8553   -3.8791 H   0  0  0  0  0  0  0  0  0  0  0  0
   -3.2556   -0.9415   -1.4293 H   0  0  0  0  0  0  0  0  0  0  0  0
   -2.6777    1.1474   -0.5786 H   0  0  0  0  0  0  0  0  0  0  0  0
   -0.5035    1.1668    0.4451 H   0  0  0  0  0  0  0  0  0  0  0  0
    0.6321   -0.8588    0.4116 H   0  0  0  0  0  0  0  0  0  0  0  0
    2.6923   -0.8435   -0.8906 H   0  0  0  0  0  0  0  0  0  0  0  0
    4.5987    2.5708    0.5524 H   0  0  0  0  0  0  0  0  0  0  0  0
    6.2912    4.3430    0.8204 H   0  0  0  0  0  0  0  0  0  0  0  0
    9.3244    4.4691   -0.5667 H   0  0  0  0  0  0  0  0  0  0  0  0
    8.5333    5.1088    0.9313 H   0  0  0  0  0  0  0  0  0  0  0  0
    9.7919    3.7755    1.0573 H   0  0  0  0  0  0  0  0  0  0  0  0
    9.3511    1.6580   -0.2545 H   0  0  0  0  0  0  0  0  0  0  0  0
    7.7174   -0.1409   -0.5256 H   0  0  0  0  0  0  0  0  0  0  0  0
    6.4456   -0.0214   -2.5010 H   0  0  0  0  0  0  0  0  0  0  0  0
    6.7280   -2.0053   -3.9282 H   0  0  0  0  0  0  0  0  0  0  0  0
    4.8826   -5.1734   -3.3420 H   0  0  0  0  0  0  0  0  0  0  0  0
    5.8873   -4.2462   -4.5867 H   0  0  0  0  0  0  0  0  0  0  0  0
    6.6524   -5.0265   -3.1147 H   0  0  0  0  0  0  0  0  0  0  0  0
    4.4087   -4.3356   -1.2561 H   0  0  0  0  0  0  0  0  0  0  0  0
    4.1120   -2.4334    0.1812 H   0  0  0  0  0  0  0  0  0  0  0  0
    4.7228    1.0085    2.3536 H   0  0  0  0  0  0  0  0  0  0  0  0
    2.6043    0.9970    3.6511 H   0  0  0  0  0  0  0  0  0  0  0  0
   -1.9720   -0.9476    3.8174 H   0  0  0  0  0  0  0  0  0  0  0  0
   -4.2030   -0.9916    2.7853 H   0  0  0  0  0  0  0  0  0  0  0  0
   -5.3462    1.0562    2.8030 H   0  0  0  0  0  0  0  0  0  0  0  0
   -7.4607    0.9031    4.0954 H   0  0  0  0  0  0  0  0  0  0  0  0
  1  2  1  0
  2  3  2  0
  3  4  1  0
  4  5  2  0
  5  6  1  0
  6  7  1  0
  7  8  2  0
  8  9  1  0
  9 10  2  0
 10 11  1  0
 10 12  1  0
 12 13  2  0
  6 14  1  0
 14 15  2  0
 15 16  1  0
 16 17  2  0
 17 18  1  0
 18 19  2  0
 18 20  1  0
 20 21  2  0
 21 22  1  0
 22 23  2  0
 23 24  1  0
 24 25  1  0
 25 26  2  0
 26 27  1  0
 27 28  2  0
 28 29  1  0
 28 30  1  0
 30 31  2  0
 24 32  1  0
 32 33  2  0
 33 34  1  0
 34 35  2  0
 35 36  1  0
 35 37  1  0
 37 38  2  0
 23 39  1  0
 39 40  2  0
 17 41  1  0
 41 42  2  0
  5 43  1  0
 43 44  2  0
 44  2  1  0
 13  7  1  0
 42 14  1  0
 40 20  1  0
 31 25  1  0
 38 32  1  0
  1 45  1  0
  1 46  1  0
  1 47  1  0
  3 48  1  0
  4 49  1  0
  8 50  1  0
  9 51  1  0
 11 52  1  0
 11 53  1  0
 11 54  1  0
 12 55  1  0
 13 56  1  0
 15 57  1  0
 16 58  1  0
 21 59  1  0
 22 60  1  0
 26 61  1  0
 27 62  1  0
 29 63  1  0
 29 64  1  0
 29 65  1  0
 30 66  1  0
 31 67  1  0
 33 68  1  0
 34 69  1  0
 36 70  1  0
 36 71  1  0
 36 72  1  0
 37 73  1  0
 38 74  1  0
 39 75  1  0
 40 76  1  0
 41 77  1  0
 42 78  1  0
 43 79  1  0
 44 80  1  0
M  END
