
     RDKit          3D

 68 73  0  0  0  0  0  0  0  0999 V2000
   -0.0609    3.5636    0.9516 O   0  0  0  0  0  0  0  0  0  0  0  0
   -0.0228    2.3310    0.6046 C   0  0  0  0  0  0  0  0  0  0  0  0
    1.2888    1.7443    0.4955 C   0  0  0  0  0  0  0  0  0  0  0  0
    1.5471    0.6440   -0.2872 C   0  0  0  0  0  0  0  0  0  0  0  0
    2.7880    0.0493   -0.4009 C   0  0  0  0  0  0  0  0  0  0  0  0
    3.8494    0.5691    0.3007 C   0  0  0  0  0  0  0  0  0  0  0  0
    5.1585    0.0080    0.2032 N   0  0  0  0  0  0  0  0  0  0  0  0
    6.0024    0.1178    1.3472 C   0  0  0  0  0  0  0  0  0  0  0  0
    7.3474    0.2342    1.1724 C   0  0  0  0  0  0  0  0  0  0  0  0
    8.1891    0.3200    2.2598 C   0  0  0  0  0  0  0  0  0  0  0  0
    7.7129    0.2926    3.5498 C   0  0  0  0  0  0  0  0  0  0  0  0
    8.8850    0.4117    5.0367 Br  0  0  0  0  0  0  0  0  0  0  0  0
    6.3305    0.1733    3.7256 C   0  0  0  0  0  0  0  0  0  0  0  0
    5.4976    0.0878    2.6332 C   0  0  0  0  0  0  0  0  0  0  0  0
    5.6323   -0.6127   -0.9560 C   0  0  0  0  0  0  0  0  0  0  0  0
    5.1447   -0.2648   -2.2100 C   0  0  0  0  0  0  0  0  0  0  0  0
    5.5955   -0.8860   -3.3532 C   0  0  0  0  0  0  0  0  0  0  0  0
    6.5569   -1.8890   -3.3148 C   0  0  0  0  0  0  0  0  0  0  0  0
    7.1605   -2.7306   -4.9095 Br  0  0  0  0  0  0  0  0  0  0  0  0
    7.0383   -2.2323   -2.0748 C   0  0  0  0  0  0  0  0  0  0  0  0
    6.5833   -1.6079   -0.9404 C   0  0  0  0  0  0  0  0  0  0  0  0
    3.6330    1.6679    1.0933 C   0  0  0  0  0  0  0  0  0  0  0  0
    2.3865    2.2461    1.1932 C   0  0  0  0  0  0  0  0  0  0  0  0
   -1.2923    1.6817    0.3663 C   0  0  0  0  0  0  0  0  0  0  0  0
   -2.3897    2.4220   -0.0799 C   0  0  0  0  0  0  0  0  0  0  0  0
   -3.6241    1.8588   -0.3013 C   0  0  0  0  0  0  0  0  0  0  0  0
   -3.8204    0.5077   -0.0823 C   0  0  0  0  0  0  0  0  0  0  0  0
   -5.1076   -0.0613   -0.2900 N   0  0  0  0  0  0  0  0  0  0  0  0
   -5.2802   -1.4310   -0.6323 C   0  0  0  0  0  0  0  0  0  0  0  0
   -6.4125   -2.0929   -0.2226 C   0  0  0  0  0  0  0  0  0  0  0  0
   -6.6285   -3.4061   -0.5486 C   0  0  0  0  0  0  0  0  0  0  0  0
   -5.7157   -4.0937   -1.2943 C   0  0  0  0  0  0  0  0  0  0  0  0
   -5.9793   -5.9315   -1.7741 Br  0  0  0  0  0  0  0  0  0  0  0  0
   -4.5751   -3.4410   -1.7114 C   0  0  0  0  0  0  0  0  0  0  0  0
   -4.3544   -2.1166   -1.3847 C   0  0  0  0  0  0  0  0  0  0  0  0
   -6.2829    0.7249   -0.1403 C   0  0  0  0  0  0  0  0  0  0  0  0
   -6.3590    1.7592    0.7560 C   0  0  0  0  0  0  0  0  0  0  0  0
   -7.5173    2.5015    0.8384 C   0  0  0  0  0  0  0  0  0  0  0  0
   -8.6086    2.2335    0.0419 C   0  0  0  0  0  0  0  0  0  0  0  0
  -10.1984    3.2941    0.1902 Br  0  0  0  0  0  0  0  0  0  0  0  0
   -8.5314    1.1938   -0.8582 C   0  0  0  0  0  0  0  0  0  0  0  0
   -7.3654    0.4487   -0.9396 C   0  0  0  0  0  0  0  0  0  0  0  0
   -2.7524   -0.2441    0.3580 C   0  0  0  0  0  0  0  0  0  0  0  0
   -1.5102    0.3381    0.5774 C   0  0  0  0  0  0  0  0  0  0  0  0
    0.7197    0.2249   -0.8590 H   0  0  0  0  0  0  0  0  0  0  0  0
    2.9311   -0.8352   -1.0408 H   0  0  0  0  0  0  0  0  0  0  0  0
    7.8175    0.2733    0.2026 H   0  0  0  0  0  0  0  0  0  0  0  0
    9.2594    0.4124    2.1082 H   0  0  0  0  0  0  0  0  0  0  0  0
    5.9828    0.1549    4.7475 H   0  0  0  0  0  0  0  0  0  0  0  0
    4.4363   -0.0090    2.7644 H   0  0  0  0  0  0  0  0  0  0  0  0
    4.4036    0.5042   -2.3336 H   0  0  0  0  0  0  0  0  0  0  0  0
    5.1955   -0.5948   -4.3225 H   0  0  0  0  0  0  0  0  0  0  0  0
    7.7850   -3.0066   -2.0141 H   0  0  0  0  0  0  0  0  0  0  0  0
    6.9840   -1.9164    0.0234 H   0  0  0  0  0  0  0  0  0  0  0  0
    4.4690    2.0798    1.6374 H   0  0  0  0  0  0  0  0  0  0  0  0
    2.1993    3.1128    1.8150 H   0  0  0  0  0  0  0  0  0  0  0  0
   -2.2622    3.4835   -0.2584 H   0  0  0  0  0  0  0  0  0  0  0  0
   -4.4744    2.4331   -0.6574 H   0  0  0  0  0  0  0  0  0  0  0  0
   -7.1470   -1.5672    0.3784 H   0  0  0  0  0  0  0  0  0  0  0  0
   -7.5254   -3.9130   -0.2184 H   0  0  0  0  0  0  0  0  0  0  0  0
   -3.8385   -3.9689   -2.3034 H   0  0  0  0  0  0  0  0  0  0  0  0
   -3.4488   -1.6238   -1.7319 H   0  0  0  0  0  0  0  0  0  0  0  0
   -5.5057    2.0045    1.4224 H   0  0  0  0  0  0  0  0  0  0  0  0
   -7.5487    3.3308    1.5715 H   0  0  0  0  0  0  0  0  0  0  0  0
   -9.4032    1.0108   -1.4648 H   0  0  0  0  0  0  0  0  0  0  0  0
   -7.3748   -0.3528   -1.6722 H   0  0  0  0  0  0  0  0  0  0  0  0
   -2.8877   -1.3224    0.5441 H   0  0  0  0  0  0  0  0  0  0  0  0
   -0.7055   -0.2979    0.9325 H   0  0  0  0  0  0  0  0  0  0  0  0
  1  2  2  0
  2  3  1  0
  3  4  2  0
  4  5  1  0
  5  6  2  0
  6  7  1  0
  7  8  1  0
  8  9  2  0
  9 10  1  0
 10 11  2  0
 11 12  1  0
 11 13  1  0
 13 14  2  0
  7 15  1  0
 15 16  2  0
 16 17  1  0
 17 18  2  0
 18 19  1  0
 18 20  1  0
 20 21  2  0
  6 22  1  0
 22 23  2  0
  2 24  1  0
 24 25  2  0
 25 26  1  0
 26 27  2  0
 27 28  1  0
 28 29  1  0
 29 30  2  0
 30 31  1  0
 31 32  2  0
 32 33  1  0
 32 34  1  0
 34 35  2  0
 28 36  1  0
 36 37  2  0
 37 38  1  0
 38 39  2  0
 39 40  1  0
 39 41  1  0
 41 42  2  0
 27 43  1  0
 43 44  2  0
 23  3  1  0
 44 24  1  0
 14  8  1  0
 21 15  1  0
 35 29  1  0
 42 36  1  0
  4 45  1  0
  5 46  1  0
  9 47  1  0
 10 48  1  0
 13 49  1  0
 14 50  1  0
 16 51  1  0
 17 52  1  0
 20 53  1  0
 21 54  1  0
 22 55  1  0
 23 56  1  0
 25 57  1  0
 26 58  1  0
 30 59  1  0
 31 60  1  0
 34 61  1  0
 35 62  1  0
 37 63  1  0
 38 64  1  0
 41 65  1  0
 42 66  1  0
 43 67  1  0
 44 68  1  0
M  END
