
     RDKit          3D

 54 60  0  0  0  0  0  0  0  0999 V2000
   -1.8743   -3.2230   -5.6001 N   0  0  0  0  0  0  0  0  0  0  0  0
   -1.3348   -2.7070   -4.7173 C   0  0  0  0  0  0  0  0  0  0  0  0
   -0.6560   -2.0733   -3.5987 C   0  0  0  0  0  0  0  0  0  0  0  0
   -1.3493   -1.4807   -2.5747 C   0  0  0  0  0  0  0  0  0  0  0  0
   -0.7104   -0.8760   -1.5074 C   0  0  0  0  0  0  0  0  0  0  0  0
   -1.4375   -0.2630   -0.4485 N   0  0  0  0  0  0  0  0  0  0  0  0
   -1.7630   -0.7661    0.7519 C   0  0  0  0  0  0  0  0  0  0  0  0
   -1.5210   -1.9889    1.3493 C   0  0  0  0  0  0  0  0  0  0  0  0
   -1.9760   -2.2737    2.6362 C   0  0  0  0  0  0  0  0  0  0  0  0
   -2.6854   -1.3338    3.3514 C   0  0  0  0  0  0  0  0  0  0  0  0
   -3.2384   -1.7270    4.9594 Cl  0  0  0  0  0  0  0  0  0  0  0  0
   -2.9340   -0.1093    2.7671 C   0  0  0  0  0  0  0  0  0  0  0  0
   -2.4769    0.1632    1.4872 C   0  0  0  0  0  0  0  0  0  0  0  0
   -2.5855    1.2749    0.6932 C   0  0  0  0  0  0  0  0  0  0  0  0
   -3.1951    2.4840    0.9324 C   0  0  0  0  0  0  0  0  0  0  0  0
   -3.1493    3.4379   -0.0615 C   0  0  0  0  0  0  0  0  0  0  0  0
   -3.9214    4.9811    0.2305 Cl  0  0  0  0  0  0  0  0  0  0  0  0
   -2.5155    3.1961   -1.2590 C   0  0  0  0  0  0  0  0  0  0  0  0
   -1.9131    1.9766   -1.4724 C   0  0  0  0  0  0  0  0  0  0  0  0
   -1.9329    0.9897   -0.5058 C   0  0  0  0  0  0  0  0  0  0  0  0
    0.6891   -0.8816   -1.4939 C   0  0  0  0  0  0  0  0  0  0  0  0
    1.4262   -0.2819   -0.4337 N   0  0  0  0  0  0  0  0  0  0  0  0
    1.9289   -0.9170    0.6458 C   0  0  0  0  0  0  0  0  0  0  0  0
    1.8833   -2.2447    1.0203 C   0  0  0  0  0  0  0  0  0  0  0  0
    2.4841   -2.6783    2.1989 C   0  0  0  0  0  0  0  0  0  0  0  0
    3.1367   -1.7704    3.0091 C   0  0  0  0  0  0  0  0  0  0  0  0
    3.8973   -2.2982    4.4939 Cl  0  0  0  0  0  0  0  0  0  0  0  0
    3.1814   -0.4252    2.6271 C   0  0  0  0  0  0  0  0  0  0  0  0
    2.5849   -0.0008    1.4588 C   0  0  0  0  0  0  0  0  0  0  0  0
    2.4811    1.2299    0.8606 C   0  0  0  0  0  0  0  0  0  0  0  0
    2.9440    2.4723    1.2307 C   0  0  0  0  0  0  0  0  0  0  0  0
    2.6748    3.5381    0.4044 C   0  0  0  0  0  0  0  0  0  0  0  0
    3.2302    5.1504    0.8069 Cl  0  0  0  0  0  0  0  0  0  0  0  0
    1.9502    3.3470   -0.7738 C   0  0  0  0  0  0  0  0  0  0  0  0
    1.5069    2.0891   -1.1050 C   0  0  0  0  0  0  0  0  0  0  0  0
    1.7633    1.0163   -0.2982 C   0  0  0  0  0  0  0  0  0  0  0  0
    1.3521   -1.4863   -2.5395 C   0  0  0  0  0  0  0  0  0  0  0  0
    0.7165   -2.0843   -3.5949 C   0  0  0  0  0  0  0  0  0  0  0  0
    1.4201   -2.7130   -4.6818 C   0  0  0  0  0  0  0  0  0  0  0  0
    1.9857   -3.2209   -5.5603 N   0  0  0  0  0  0  0  0  0  0  0  0
   -2.4399   -1.4855   -2.6014 H   0  0  0  0  0  0  0  0  0  0  0  0
   -0.9674   -2.7052    0.7740 H   0  0  0  0  0  0  0  0  0  0  0  0
   -1.7641   -3.2542    3.0751 H   0  0  0  0  0  0  0  0  0  0  0  0
   -3.5002    0.6424    3.3366 H   0  0  0  0  0  0  0  0  0  0  0  0
   -3.7057    2.7199    1.8586 H   0  0  0  0  0  0  0  0  0  0  0  0
   -2.4776    3.9548   -2.0529 H   0  0  0  0  0  0  0  0  0  0  0  0
   -1.4022    1.7665   -2.4244 H   0  0  0  0  0  0  0  0  0  0  0  0
    1.3888   -3.0043    0.4306 H   0  0  0  0  0  0  0  0  0  0  0  0
    2.4353   -3.7365    2.4759 H   0  0  0  0  0  0  0  0  0  0  0  0
    3.7065    0.2358    3.3027 H   0  0  0  0  0  0  0  0  0  0  0  0
    3.5054    2.6633    2.1291 H   0  0  0  0  0  0  0  0  0  0  0  0
    1.7515    4.2109   -1.4100 H   0  0  0  0  0  0  0  0  0  0  0  0
    0.9520    1.9796   -2.0206 H   0  0  0  0  0  0  0  0  0  0  0  0
    2.4502   -1.5097   -2.5619 H   0  0  0  0  0  0  0  0  0  0  0  0
  1  2  3  0
  2  3  1  0
  3  4  2  0
  4  5  1  0
  5  6  1  0
  6  7  1  0
  7  8  2  0
  8  9  1  0
  9 10  2  0
 10 11  1  0
 10 12  1  0
 12 13  2  0
 13 14  1  0
 14 15  2  0
 15 16  1  0
 16 17  1  0
 16 18  2  0
 18 19  1  0
 19 20  2  0
  5 21  2  0
 21 22  1  0
 22 23  1  0
 23 24  2  0
 24 25  1  0
 25 26  2  0
 26 27  1  0
 26 28  1  0
 28 29  2  0
 29 30  1  0
 30 31  2  0
 31 32  1  0
 32 33  1  0
 32 34  2  0
 34 35  1  0
 35 36  2  0
 21 37  1  0
 37 38  2  0
 38 39  1  0
 39 40  3  0
 38  3  1  0
 20  6  1  0
 36 22  1  0
 13  7  1  0
 20 14  1  0
 29 23  1  0
 36 30  1  0
  4 41  1  0
  8 42  1  0
  9 43  1  0
 12 44  1  0
 15 45  1  0
 18 46  1  0
 19 47  1  0
 24 48  1  0
 25 49  1  0
 28 50  1  0
 31 51  1  0
 34 52  1  0
 35 53  1  0
 37 54  1  0
M  END
